124021
  -OEChem-09082301073D

 39 40  0     1  0  0  0  0  0999 V2000
    2.0591   -0.8279    0.1658 O   0  0  0  0  0  0  0  0  0  0  0  0
    5.6404   -0.0619    0.2063 O   0  0  0  0  0  0  0  0  0  0  0  0
    4.4029    2.4952    0.7409 O   0  0  0  0  0  0  0  0  0  0  0  0
    0.1663    0.4823   -0.2147 O   0  0  0  0  0  0  0  0  0  0  0  0
    1.8358    2.7177   -0.6877 O   0  0  0  0  0  0  0  0  0  0  0  0
    3.0369   -3.3882   -0.0458 O   0  0  0  0  0  0  0  0  0  0  0  0
   -0.2331   -1.5594   -1.2001 O   0  0  0  0  0  0  0  0  0  0  0  0
   -4.2736    2.5530    0.0804 O   0  0  0  0  0  0  0  0  0  0  0  0
   -5.0505   -2.1551    0.4896 O   0  0  0  0  0  0  0  0  0  0  0  0
   -5.9974    0.4461    0.5897 O   0  0  0  0  0  0  0  0  0  0  0  0
    4.2628    0.1156    0.5255 C   0  0  1  0  0  0  0  0  0  0  0  0
    3.7854    1.4596   -0.0250 C   0  0  1  0  0  0  0  0  0  0  0  0
    3.4520   -1.0357   -0.0743 C   0  0  1  0  0  0  0  0  0  0  0  0
    2.2656    1.5901    0.0746 C   0  0  2  0  0  0  0  0  0  0  0  0
    1.5637    0.3470   -0.4721 C   0  0  1  0  0  0  0  0  0  0  0  0
    3.8307   -2.3765    0.5468 C   0  0  0  0  0  0  0  0  0  0  0  0
   -0.6158   -0.5476   -0.6334 C   0  0  0  0  0  0  0  0  0  0  0  0
   -2.0407   -0.2851   -0.3093 C   0  0  0  0  0  0  0  0  0  0  0  0
   -2.8767   -1.3543   -0.0599 C   0  0  0  0  0  0  0  0  0  0  0  0
   -2.4852    1.0205   -0.2681 C   0  0  0  0  0  0  0  0  0  0  0  0
   -3.8239    1.2678    0.0357 C   0  0  0  0  0  0  0  0  0  0  0  0
   -4.2156   -1.1072    0.2437 C   0  0  0  0  0  0  0  0  0  0  0  0
   -4.6892    0.2040    0.2915 C   0  0  0  0  0  0  0  0  0  0  0  0
    4.1773    0.1187    1.6191 H   0  0  0  0  0  0  0  0  0  0  0  0
    4.1176    1.6007   -1.0609 H   0  0  0  0  0  0  0  0  0  0  0  0
    3.6112   -1.1072   -1.1589 H   0  0  0  0  0  0  0  0  0  0  0  0
    1.9674    1.7774    1.1130 H   0  0  0  0  0  0  0  0  0  0  0  0
    1.7021    0.2725   -1.5596 H   0  0  0  0  0  0  0  0  0  0  0  0
    3.6367   -2.3882    1.6245 H   0  0  0  0  0  0  0  0  0  0  0  0
    4.8831   -2.6197    0.3752 H   0  0  0  0  0  0  0  0  0  0  0  0
    5.7252   -0.0733   -0.7623 H   0  0  0  0  0  0  0  0  0  0  0  0
    5.3655    2.3765    0.6683 H   0  0  0  0  0  0  0  0  0  0  0  0
    2.0923    2.5711   -1.6142 H   0  0  0  0  0  0  0  0  0  0  0  0
    2.1044   -3.1593    0.1091 H   0  0  0  0  0  0  0  0  0  0  0  0
   -2.5053   -2.3749   -0.0944 H   0  0  0  0  0  0  0  0  0  0  0  0
   -1.8304    1.8618   -0.4776 H   0  0  0  0  0  0  0  0  0  0  0  0
   -5.2203    2.5381    0.3046 H   0  0  0  0  0  0  0  0  0  0  0  0
   -4.5495   -2.9851    0.4116 H   0  0  0  0  0  0  0  0  0  0  0  0
   -6.4418   -0.4070    0.7362 H   0  0  0  0  0  0  0  0  0  0  0  0
  1 13  1  0  0  0  0
  1 15  1  0  0  0  0
  2 11  1  0  0  0  0
  2 31  1  0  0  0  0
  3 12  1  0  0  0  0
  3 32  1  0  0  0  0
  4 15  1  0  0  0  0
  4 17  1  0  0  0  0
  5 14  1  0  0  0  0
  5 33  1  0  0  0  0
  6 16  1  0  0  0  0
  6 34  1  0  0  0  0
  7 17  2  0  0  0  0
  8 21  1  0  0  0  0
  8 37  1  0  0  0  0
  9 22  1  0  0  0  0
  9 38  1  0  0  0  0
 10 23  1  0  0  0  0
 10 39  1  0  0  0  0
 11 12  1  0  0  0  0
 11 13  1  0  0  0  0
 11 24  1  0  0  0  0
 12 14  1  0  0  0  0
 12 25  1  0  0  0  0
 13 16  1  0  0  0  0
 13 26  1  0  0  0  0
 14 15  1  0  0  0  0
 14 27  1  0  0  0  0
 15 28  1  0  0  0  0
 16 29  1  0  0  0  0
 16 30  1  0  0  0  0
 17 18  1  0  0  0  0
 18 19  2  0  0  0  0
 18 20  1  0  0  0  0
 19 22  1  0  0  0  0
 19 35  1  0  0  0  0
 20 21  2  0  0  0  0
 20 36  1  0  0  0  0
 21 23  1  0  0  0  0
 22 23  2  0  0  0  0
M  END
> <PUBCHEM_COMPOUND_CID>
124021

> <PUBCHEM_CONFORMER_RMSD>
0.8

> <PUBCHEM_CONFORMER_DIVERSEORDER>
1
47
66
48
21
51
12
59
22
70
20
46
8
63
61
57
27
4
62
24
15
52
3
10
71
18
68
14
39
17
65
30
28
32
36
73
69
60
67
5
2
25
23
19
53
31
35
9
42
41
50
64
45
13
40
54
43
56
26
37
55
16
34
49
58
7
44
72
38
29
33
6
11

> <PUBCHEM_MMFF94_PARTIAL_CHARGES>
32
1 -0.56
10 -0.53
11 0.28
12 0.28
13 0.28
14 0.28
15 0.56
16 0.28
17 0.63
18 0.09
19 -0.15
2 -0.68
20 -0.15
21 0.08
22 0.08
23 0.08
3 -0.68
31 0.4
32 0.4
33 0.4
34 0.4
35 0.15
36 0.15
37 0.45
38 0.45
39 0.45
4 -0.43
5 -0.68
6 -0.68
7 -0.57
8 -0.53
9 -0.53

> <PUBCHEM_EFFECTIVE_ROTOR_COUNT>
5.2

> <PUBCHEM_PHARMACOPHORE_FEATURES>
15
1 1 acceptor
1 10 donor
1 2 acceptor
1 2 donor
1 3 acceptor
1 3 donor
1 5 acceptor
1 5 donor
1 6 acceptor
1 6 donor
1 7 acceptor
1 8 donor
1 9 donor
6 1 11 12 13 14 15 rings
6 18 19 20 21 22 23 rings

> <PUBCHEM_HEAVY_ATOM_COUNT>
23

> <PUBCHEM_ATOM_DEF_STEREO_COUNT>
5

> <PUBCHEM_ATOM_UDEF_STEREO_COUNT>
0

> <PUBCHEM_BOND_DEF_STEREO_COUNT>
0

> <PUBCHEM_BOND_UDEF_STEREO_COUNT>
0

> <PUBCHEM_ISOTOPIC_ATOM_COUNT>
0

> <PUBCHEM_COMPONENT_COUNT>
1

> <PUBCHEM_CACTVS_TAUTO_COUNT>
14

> <PUBCHEM_CONFORMER_ID>
0001E47500000001

> <PUBCHEM_MMFF94_ENERGY>
62.7225

> <PUBCHEM_FEATURE_SELFOVERLAP>
76.155

> <PUBCHEM_SHAPE_FINGERPRINT>
11370993 144 18263362504092472909
11405975 8 18339081493262310993
12107183 9 17906734704800252849
12236239 1 18060137661006707730
12507560 40 18410009944429499493
12596602 18 17703511094359831594
12670546 56 18409725179745099911
12788726 201 17060352824122626256
12892183 10 18409730698609231383
13167823 11 18410572885856458523
13533116 47 18408042892674375411
13583140 156 18059565927723755953
13675066 3 18202279199603246367
13785724 45 17695918730516343470
14178342 30 18053360378986990258
14341114 176 18410299081870368379
14420673 8 18120657933126530483
14790565 3 18119534486474273724
14849402 71 18264768947438485240
14866123 147 16971112861403772042
15196674 1 18411418427383102909
15256400 18 18338517443597074453
15475509 84 18058444297442336912
17492 89 18410294709546954787
17844677 252 18411989043958415361
1813 80 16732989691040143470
20715895 44 18054791676865360353
20739085 24 18260263079999401556
21033648 29 17774705502971279584
21065198 48 18410573989710195059
21065198 57 18409730625721355247
21065199 12 18409166623390196161
21267235 1 18411425012037199806
21421861 104 17969775273284004386
21792934 111 18333741200579975337
21859007 373 17606111776748965485
23402539 116 18409725201705311287
23559900 14 18408882949400805515
239999 70 18272940414644383270
3421961 26 18337669711995954706
351380 180 18409449206785084209
3545911 37 18410857659283552509
4073 2 18113905986875532842
42 15 18334013908240985789
4214541 1 18409166602121360737
5104073 3 18410858741947432891
77779 3 18409730655633165009
8272917 22 18412266125500372654
9709674 26 18261680349902061883

> <PUBCHEM_SHAPE_MULTIPOLES>
414.64
12.77
2.86
0.76
5.1
0.37
-0.05
-0.18
3.1
-1.88
0.1
-0.05
0.04
0.09

> <PUBCHEM_SHAPE_SELFOVERLAP>
880.972

> <PUBCHEM_SHAPE_VOLUME>
228.4

> <PUBCHEM_COORDINATE_TYPE>
2
5
10

$$$$
