5287407
  Mrv2312 10132305153D          

168176  0  0  1  0            999 V2000
  -10.8934   10.0502    2.1251 O   0  0  0  0  0  0  0  0  0  0  0  0
  -11.9906   11.0500    6.6498 O   0  0  0  0  0  0  0  0  0  0  0  0
  -11.3621   13.5314   10.8989 O   0  0  0  0  0  0  0  0  0  0  0  0
   -7.7973    8.7434    4.5121 O   0  0  0  0  0  0  0  0  0  0  0  0
   -9.0799   14.8894   14.8887 O   0  0  0  0  0  0  0  0  0  0  0  0
   -9.3431    8.2745    9.0318 O   0  0  0  0  0  0  0  0  0  0  0  0
   -9.3544   12.0658   17.7532 O   0  0  0  0  0  0  0  0  0  0  0  0
  -10.4435    9.9870   13.5350 O   0  0  0  0  0  0  0  0  0  0  0  0
  -13.4884   11.0217    4.7479 O   0  0  0  0  0  0  0  0  0  0  0  0
   -9.4448   11.4556    3.4796 O   0  0  0  0  0  0  0  0  0  0  0  0
  -11.9805   14.2037    8.6692 O   0  0  0  0  0  0  0  0  0  0  0  0
   -8.4724   15.2040   12.5737 O   0  0  0  0  0  0  0  0  0  0  0  0
   -6.7785    9.4111    6.5882 O   0  0  0  0  0  0  0  0  0  0  0  0
   -7.7276   12.1001   15.9496 O   0  0  0  0  0  0  0  0  0  0  0  0
   -8.5686    7.7001   11.2422 O   0  0  0  0  0  0  0  0  0  0  0  0
  -10.8308    9.1476   15.7708 O   0  0  0  0  0  0  0  0  0  0  0  0
  -10.8823    7.8364    3.8762 O   0  0  0  0  0  0  0  0  0  0  0  0
  -13.7671   10.3844    8.9136 O   0  0  0  0  0  0  0  0  0  0  0  0
   -6.8006    8.8342    1.4395 O   0  0  0  0  0  0  0  0  0  0  0  0
  -12.6091   15.8699   12.3704 O   0  0  0  0  0  0  0  0  0  0  0  0
   -8.3446    5.7102    7.7525 O   0  0  0  0  0  0  0  0  0  0  0  0
   -7.5358   16.0135   17.5728 O   0  0  0  0  0  0  0  0  0  0  0  0
  -12.6148    8.6470   11.9944 O   0  0  0  0  0  0  0  0  0  0  0  0
  -11.4371   13.2858   16.2677 O   0  0  0  0  0  0  0  0  0  0  0  0
  -11.7333    8.1499    6.5901 O   0  0  0  0  0  0  0  0  0  0  0  0
   -9.1184    9.8932    0.0887 O   0  0  0  0  0  0  0  0  0  0  0  0
  -13.6181   12.0020   11.1934 O   0  0  0  0  0  0  0  0  0  0  0  0
  -11.1251   16.7383   14.6516 O   0  0  0  0  0  0  0  0  0  0  0  0
   -7.3497    6.0831    5.0724 O   0  0  0  0  0  0  0  0  0  0  0  0
   -7.9070   13.7343   19.3221 O   0  0  0  0  0  0  0  0  0  0  0  0
  -11.8862    7.4271    9.5689 O   0  0  0  0  0  0  0  0  0  0  0  0
  -12.4202   11.9265   13.8952 O   0  0  0  0  0  0  0  0  0  0  0  0
  -12.7452   12.1573    1.3436 O   0  0  0  0  0  0  0  0  0  0  0  0
  -10.0339   14.8788    6.7789 O   0  0  0  0  0  0  0  0  0  0  0  0
   -6.8081   12.7597    2.6828 O   0  0  0  0  0  0  0  0  0  0  0  0
   -8.0500   14.7412    9.8305 O   0  0  0  0  0  0  0  0  0  0  0  0
   -7.4992   11.8679    7.7068 O   0  0  0  0  0  0  0  0  0  0  0  0
   -4.9491   13.4410   15.9894 O   0  0  0  0  0  0  0  0  0  0  0  0
   -7.6206    7.9779   13.9664 O   0  0  0  0  0  0  0  0  0  0  0  0
   -8.6406    9.3897   18.7112 O   0  0  0  0  0  0  0  0  0  0  0  0
  -11.8860    9.9334    3.1758 C   0  0  1  0  0  0  0  0  0  0  0  0
  -12.4994   12.0562    7.5598 C   0  0  1  0  0  0  0  0  0  0  0  0
   -7.4777    9.8198    3.5851 C   0  0  1  0  0  0  0  0  0  0  0  0
  -10.6529   14.6679   11.4607 C   0  0  1  0  0  0  0  0  0  0  0  0
   -8.1487    8.1227    8.2188 C   0  0  1  0  0  0  0  0  0  0  0  0
   -7.8159   14.6196   15.5621 C   0  0  1  0  0  0  0  0  0  0  0  0
  -10.2246    8.8185   12.7029 C   0  0  1  0  0  0  0  0  0  0  0  0
  -10.2882   11.2598   16.9924 C   0  0  1  0  0  0  0  0  0  0  0  0
  -11.3315    9.1003    4.3676 C   0  0  1  0  0  0  0  0  0  0  0  0
  -12.8300   11.4556    8.9594 C   0  0  1  0  0  0  0  0  0  0  0  0
   -7.9237    9.3384    2.1623 C   0  0  1  0  0  0  0  0  0  0  0  0
  -11.3710   15.2553   12.7170 C   0  0  1  0  0  0  0  0  0  0  0  0
   -8.2896    6.9983    7.1435 C   0  0  1  0  0  0  0  0  0  0  0  0
   -8.0663   14.7733   17.1034 C   0  0  1  0  0  0  0  0  0  0  0  0
  -11.2643    8.7104   11.5450 C   0  0  1  0  0  0  0  0  0  0  0  0
  -10.8698   12.0633   15.7932 C   0  0  1  0  0  0  0  0  0  0  0  0
  -12.9762   10.3024    5.8868 C   0  0  1  0  0  0  0  0  0  0  0  0
   -9.8097   11.0139    2.1533 C   0  0  1  0  0  0  0  0  0  0  0  0
  -12.4490   13.7872    9.9750 C   0  0  1  0  0  0  0  0  0  0  0  0
   -6.8376    8.4169    5.5459 C   0  0  1  0  0  0  0  0  0  0  0  0
   -9.0707   15.7869   13.7509 C   0  0  1  0  0  0  0  0  0  0  0  0
   -9.5098    7.4101   10.1796 C   0  0  1  0  0  0  0  0  0  0  0  0
   -7.9695   12.2591   17.3669 C   0  0  1  0  0  0  0  0  0  0  0  0
  -11.3809    9.8512   14.6364 C   0  0  1  0  0  0  0  0  0  0  0  0
  -12.3904    8.8944    5.4837 C   0  0  2  0  0  0  0  0  0  0  0  0
   -8.6374   10.4282    1.3250 C   0  0  2  0  0  0  0  0  0  0  0  0
  -13.3918   12.5524    9.8974 C   0  0  2  0  0  0  0  0  0  0  0  0
  -10.4977   16.3139   13.4423 C   0  0  2  0  0  0  0  0  0  0  0  0
   -7.1066    7.0058    6.1339 C   0  0  2  0  0  0  0  0  0  0  0  0
   -7.4974   13.6124   17.9582 C   0  0  2  0  0  0  0  0  0  0  0  0
  -10.9846    7.4596   10.6739 C   0  0  2  0  0  0  0  0  0  0  0  0
  -11.9450   11.2348   15.0488 C   0  0  2  0  0  0  0  0  0  0  0  0
  -12.5836   11.2557    3.6467 C   0  0  1  0  0  0  0  0  0  0  0  0
  -11.4376   13.1762    7.8036 C   0  0  1  0  0  0  0  0  0  0  0  0
   -8.1506   11.1630    4.0484 C   0  0  1  0  0  0  0  0  0  0  0  0
   -9.2381   14.1737   11.9044 C   0  0  1  0  0  0  0  0  0  0  0  0
   -7.9202    9.4766    7.4784 C   0  0  1  0  0  0  0  0  0  0  0  0
   -7.2835   13.2070   15.1341 C   0  0  1  0  0  0  0  0  0  0  0  0
   -8.8196    8.8950   12.0211 C   0  0  1  0  0  0  0  0  0  0  0  0
   -9.8278    9.8189   16.5713 C   0  0  1  0  0  0  0  0  0  0  0  0
  -13.4610   11.9041    2.5444 C   0  0  1  0  0  0  0  0  0  0  0  0
  -10.9851   13.8586    6.4945 C   0  0  1  0  0  0  0  0  0  0  0  0
   -7.2346   12.4194    3.9946 C   0  0  1  0  0  0  0  0  0  0  0  0
   -8.3662   13.6806   10.7270 C   0  0  2  0  0  0  0  0  0  0  0  0
   -7.6695   10.6600    8.4414 C   0  0  1  0  0  0  0  0  0  0  0  0
   -5.7540   13.1265   14.8633 C   0  0  1  0  0  0  0  0  0  0  0  0
   -7.6625    9.0543   13.0340 C   0  0  1  0  0  0  0  0  0  0  0  0
   -9.5953    8.8824   17.7876 C   0  0  1  0  0  0  0  0  0  0  0  0
  -12.6707    9.3183    2.7260 H   0  0  0  0  0  0  0  0  0  0  0  0
  -13.3917   12.5334    7.1387 H   0  0  0  0  0  0  0  0  0  0  0  0
   -6.3946    9.9788    3.5482 H   0  0  0  0  0  0  0  0  0  0  0  0
  -10.5309   15.4588   10.7123 H   0  0  0  0  0  0  0  0  0  0  0  0
   -7.2731    7.9190    8.8449 H   0  0  0  0  0  0  0  0  0  0  0  0
   -7.0645   15.3643   15.2757 H   0  0  0  0  0  0  0  0  0  0  0  0
  -10.2575    7.9060   13.3107 H   0  0  0  0  0  0  0  0  0  0  0  0
  -11.1272   11.1179   17.6808 H   0  0  0  0  0  0  0  0  0  0  0  0
  -10.4745    9.6052    4.8092 H   0  0  0  0  0  0  0  0  0  0  0  0
  -11.9112   11.0572    9.3878 H   0  0  0  0  0  0  0  0  0  0  0  0
   -8.6170    8.4972    2.2613 H   0  0  0  0  0  0  0  0  0  0  0  0
  -11.5923   14.4418   13.4089 H   0  0  0  0  0  0  0  0  0  0  0  0
   -9.2233    7.1446    6.5939 H   0  0  0  0  0  0  0  0  0  0  0  0
   -9.1435   14.8188   17.2926 H   0  0  0  0  0  0  0  0  0  0  0  0
  -11.1801    9.6023   10.9269 H   0  0  0  0  0  0  0  0  0  0  0  0
  -10.0808   12.3155   15.0856 H   0  0  0  0  0  0  0  0  0  0  0  0
  -13.8524   10.0866    6.4968 H   0  0  0  0  0  0  0  0  0  0  0  0
  -10.1637   11.8996    1.6279 H   0  0  0  0  0  0  0  0  0  0  0  0
  -13.0640   14.6080   10.3444 H   0  0  0  0  0  0  0  0  0  0  0  0
   -5.8416    8.3669    5.0955 H   0  0  0  0  0  0  0  0  0  0  0  0
   -8.4753   16.6689   14.0057 H   0  0  0  0  0  0  0  0  0  0  0  0
   -9.3248    6.3766    9.8883 H   0  0  0  0  0  0  0  0  0  0  0  0
   -7.3901   11.4780   17.8595 H   0  0  0  0  0  0  0  0  0  0  0  0
  -12.2415    9.2581   14.3317 H   0  0  0  0  0  0  0  0  0  0  0  0
  -13.2470    8.3383    5.0131 H   0  0  0  0  0  0  0  0  0  0  0  0
   -7.9309   11.2181    1.0699 H   0  0  0  0  0  0  0  0  0  0  0  0
  -14.3643   12.8742    9.5093 H   0  0  0  0  0  0  0  0  0  0  0  0
  -10.4061   17.1927   12.7954 H   0  0  0  0  0  0  0  0  0  0  0  0
   -6.2047    6.6701    6.6555 H   0  0  0  0  0  0  0  0  0  0  0  0
   -6.4091   13.6558   17.9583 H   0  0  0  0  0  0  0  0  0  0  0  0
  -11.1799    6.5690   11.2790 H   0  0  0  0  0  0  0  0  0  0  0  0
  -12.8013   11.0823   15.7133 H   0  0  0  0  0  0  0  0  0  0  0  0
  -11.8397   11.9854    3.9664 H   0  0  0  0  0  0  0  0  0  0  0  0
  -10.5441   12.7479    8.2678 H   0  0  0  0  0  0  0  0  0  0  0  0
   -8.3675   11.0651    5.1088 H   0  0  0  0  0  0  0  0  0  0  0  0
   -9.3761   13.3247   12.5802 H   0  0  0  0  0  0  0  0  0  0  0  0
   -8.8264    9.7091    6.9099 H   0  0  0  0  0  0  0  0  0  0  0  0
   -7.7123   12.9838   14.1587 H   0  0  0  0  0  0  0  0  0  0  0  0
   -8.7821    9.7698   11.3627 H   0  0  0  0  0  0  0  0  0  0  0  0
   -8.9055    9.8685   15.9920 H   0  0  0  0  0  0  0  0  0  0  0  0
  -13.8569   12.8552    2.9070 H   0  0  0  0  0  0  0  0  0  0  0  0
  -14.3042   11.2527    2.3040 H   0  0  0  0  0  0  0  0  0  0  0  0
  -11.8395   14.3050    5.9825 H   0  0  0  0  0  0  0  0  0  0  0  0
  -10.5164   13.1279    5.8352 H   0  0  0  0  0  0  0  0  0  0  0  0
   -6.3438   12.2505    4.6051 H   0  0  0  0  0  0  0  0  0  0  0  0
   -7.7690   13.2792    4.4070 H   0  0  0  0  0  0  0  0  0  0  0  0
   -7.4333   13.2641   11.1127 H   0  0  0  0  0  0  0  0  0  0  0  0
   -8.8856   12.9009   10.1752 H   0  0  0  0  0  0  0  0  0  0  0  0
   -6.7722   10.4841    9.0387 H   0  0  0  0  0  0  0  0  0  0  0  0
   -8.5209   10.7861    9.1102 H   0  0  0  0  0  0  0  0  0  0  0  0
   -5.4892   13.8233   14.0643 H   0  0  0  0  0  0  0  0  0  0  0  0
   -5.4936   12.1173   14.5349 H   0  0  0  0  0  0  0  0  0  0  0  0
   -7.7703    9.9922   13.5804 H   0  0  0  0  0  0  0  0  0  0  0  0
   -6.7141    9.0891   12.4945 H   0  0  0  0  0  0  0  0  0  0  0  0
   -9.2379    7.9104   17.4385 H   0  0  0  0  0  0  0  0  0  0  0  0
  -10.5340    8.7259   18.3260 H   0  0  0  0  0  0  0  0  0  0  0  0
  -10.4853    7.3844    4.6492 H   0  0  0  0  0  0  0  0  0  0  0  0
  -13.2968    9.6563    8.4567 H   0  0  0  0  0  0  0  0  0  0  0  0
   -7.1678    8.4979    0.5942 H   0  0  0  0  0  0  0  0  0  0  0  0
  -12.9986   16.1594   13.2217 H   0  0  0  0  0  0  0  0  0  0  0  0
   -8.4711    5.0773    7.0136 H   0  0  0  0  0  0  0  0  0  0  0  0
   -7.8286   16.0836   18.5080 H   0  0  0  0  0  0  0  0  0  0  0  0
  -12.7945    9.5294   12.3806 H   0  0  0  0  0  0  0  0  0  0  0  0
  -11.7493   13.7531   15.4654 H   0  0  0  0  0  0  0  0  0  0  0  0
  -11.4872    7.2826    6.2059 H   0  0  0  0  0  0  0  0  0  0  0  0
   -8.3166    9.6255   -0.4075 H   0  0  0  0  0  0  0  0  0  0  0  0
  -14.0377   12.7228   11.7094 H   0  0  0  0  0  0  0  0  0  0  0  0
  -11.9737   17.1396   14.3707 H   0  0  0  0  0  0  0  0  0  0  0  0
   -7.4119    5.2056    5.5045 H   0  0  0  0  0  0  0  0  0  0  0  0
   -7.5426   14.5935   19.6269 H   0  0  0  0  0  0  0  0  0  0  0  0
  -11.7017    6.5793    9.1114 H   0  0  0  0  0  0  0  0  0  0  0  0
  -12.8462   12.7402   14.2402 H   0  0  0  0  0  0  0  0  0  0  0  0
  -13.4229   12.4923    0.7180 H   0  0  0  0  0  0  0  0  0  0  0  0
   -9.8214   15.2706    5.9074 H   0  0  0  0  0  0  0  0  0  0  0  0
   -6.2501   12.0072    2.3995 H   0  0  0  0  0  0  0  0  0  0  0  0
   -7.4684   14.3381    9.1499 H   0  0  0  0  0  0  0  0  0  0  0  0
   -7.3249   12.5548    8.3834 H   0  0  0  0  0  0  0  0  0  0  0  0
   -5.1510   14.3785   16.1865 H   0  0  0  0  0  0  0  0  0  0  0  0
   -7.5299    7.1705   13.4171 H   0  0  0  0  0  0  0  0  0  0  0  0
   -8.6272    8.7338   19.4395 H   0  0  0  0  0  0  0  0  0  0  0  0
  1 41  1  0  0  0  0
  1 58  1  0  0  0  0
  2 42  1  0  0  0  0
  2 57  1  0  0  0  0
  3 44  1  0  0  0  0
  3 59  1  0  0  0  0
  4 43  1  0  0  0  0
  4 60  1  0  0  0  0
  5 46  1  0  0  0  0
  5 61  1  0  0  0  0
  6 45  1  0  0  0  0
  6 62  1  0  0  0  0
  7 48  1  0  0  0  0
  7 63  1  0  0  0  0
  8 47  1  0  0  0  0
  8 64  1  0  0  0  0
  9 57  1  0  0  0  0
  9 73  1  0  0  0  0
 10 58  1  0  0  0  0
 10 75  1  0  0  0  0
 11 59  1  0  0  0  0
 11 74  1  0  0  0  0
 12 61  1  0  0  0  0
 12 76  1  0  0  0  0
 13 60  1  0  0  0  0
 13 77  1  0  0  0  0
 14 63  1  0  0  0  0
 14 78  1  0  0  0  0
 15 62  1  0  0  0  0
 15 79  1  0  0  0  0
 16 64  1  0  0  0  0
 16 80  1  0  0  0  0
 49 17  1  0  0  0  0
 17145  1  0  0  0  0
 50 18  1  0  0  0  0
 18146  1  0  0  0  0
 51 19  1  0  0  0  0
 19147  1  0  0  0  0
 52 20  1  0  0  0  0
 20148  1  0  0  0  0
 53 21  1  0  0  0  0
 21149  1  0  0  0  0
 54 22  1  0  0  0  0
 22150  1  0  0  0  0
 55 23  1  0  0  0  0
 23151  1  0  0  0  0
 56 24  1  0  0  0  0
 24152  1  0  0  0  0
 65 25  1  0  0  0  0
 25153  1  0  0  0  0
 66 26  1  0  0  0  0
 26154  1  0  0  0  0
 67 27  1  0  0  0  0
 27155  1  0  0  0  0
 68 28  1  0  0  0  0
 28156  1  0  0  0  0
 69 29  1  0  0  0  0
 29157  1  0  0  0  0
 70 30  1  0  0  0  0
 30158  1  0  0  0  0
 71 31  1  0  0  0  0
 31159  1  0  0  0  0
 72 32  1  0  0  0  0
 32160  1  0  0  0  0
 33 81  1  0  0  0  0
 33161  1  0  0  0  0
 34 82  1  0  0  0  0
 34162  1  0  0  0  0
 35 83  1  0  0  0  0
 35163  1  0  0  0  0
 36 84  1  0  0  0  0
 36164  1  0  0  0  0
 37 85  1  0  0  0  0
 37165  1  0  0  0  0
 38 86  1  0  0  0  0
 38166  1  0  0  0  0
 39 87  1  0  0  0  0
 39167  1  0  0  0  0
 40 88  1  0  0  0  0
 40168  1  0  0  0  0
 41 49  1  0  0  0  0
 41 73  1  0  0  0  0
 41 89  1  0  0  0  0
 42 50  1  0  0  0  0
 42 74  1  0  0  0  0
 42 90  1  0  0  0  0
 43 51  1  0  0  0  0
 43 75  1  0  0  0  0
 43 91  1  0  0  0  0
 44 52  1  0  0  0  0
 44 76  1  0  0  0  0
 44 92  1  0  0  0  0
 45 53  1  0  0  0  0
 45 77  1  0  0  0  0
 45 93  1  0  0  0  0
 46 54  1  0  0  0  0
 46 78  1  0  0  0  0
 46 94  1  0  0  0  0
 47 55  1  0  0  0  0
 47 79  1  0  0  0  0
 47 95  1  0  0  0  0
 48 56  1  0  0  0  0
 48 80  1  0  0  0  0
 48 96  1  0  0  0  0
 49 65  1  0  0  0  0
 49 97  1  0  0  0  0
 50 67  1  0  0  0  0
 50 98  1  0  0  0  0
 51 66  1  0  0  0  0
 51 99  1  0  0  0  0
 52 68  1  0  0  0  0
 52100  1  0  0  0  0
 53 69  1  0  0  0  0
 53101  1  0  0  0  0
 54 70  1  0  0  0  0
 54102  1  0  0  0  0
 55 71  1  0  0  0  0
 55103  1  0  0  0  0
 56 72  1  0  0  0  0
 56104  1  0  0  0  0
 57 65  1  0  0  0  0
 57105  1  0  0  0  0
 58 66  1  0  0  0  0
 58106  1  0  0  0  0
 59 67  1  0  0  0  0
 59107  1  0  0  0  0
 60 69  1  0  0  0  0
 60108  1  0  0  0  0
 61 68  1  0  0  0  0
 61109  1  0  0  0  0
 62 71  1  0  0  0  0
 62110  1  0  0  0  0
 63 70  1  0  0  0  0
 63111  1  0  0  0  0
 64 72  1  0  0  0  0
 64112  1  0  0  0  0
 65113  1  0  0  0  0
 66114  1  0  0  0  0
 67115  1  0  0  0  0
 68116  1  0  0  0  0
 69117  1  0  0  0  0
 70118  1  0  0  0  0
 71119  1  0  0  0  0
 72120  1  0  0  0  0
 73 81  1  0  0  0  0
 73121  1  0  0  0  0
 74 82  1  0  0  0  0
 74122  1  0  0  0  0
 75 83  1  0  0  0  0
 75123  1  0  0  0  0
 76 84  1  0  0  0  0
 76124  1  0  0  0  0
 77 85  1  0  0  0  0
 77125  1  0  0  0  0
 78 86  1  0  0  0  0
 78126  1  0  0  0  0
 79 87  1  0  0  0  0
 79127  1  0  0  0  0
 80 88  1  0  0  0  0
 80128  1  0  0  0  0
 81129  1  0  0  0  0
 81130  1  0  0  0  0
 82131  1  0  0  0  0
 82132  1  0  0  0  0
 83133  1  0  0  0  0
 83134  1  0  0  0  0
 84135  1  0  0  0  0
 84136  1  0  0  0  0
 85137  1  0  0  0  0
 85138  1  0  0  0  0
 86139  1  0  0  0  0
 86140  1  0  0  0  0
 87141  1  0  0  0  0
 87142  1  0  0  0  0
 88143  1  0  0  0  0
 88144  1  0  0  0  0
M  END
>  <PUBCHEM_COMPOUND_CID>
5287407

>  <PUBCHEM_COMPOUND_CANONICALIZED>
1

>  <PUBCHEM_CACTVS_COMPLEXITY>
1720

>  <PUBCHEM_CACTVS_HBOND_ACCEPTOR>
40

>  <PUBCHEM_CACTVS_HBOND_DONOR>
24

>  <PUBCHEM_CACTVS_ROTATABLE_BOND>
8

>  <PUBCHEM_CACTVS_SUBSKEYS>
AAADcfB8PgAAAAAAAAAAAAAAAAAAAAAAAAAkSJEiQAAAAAAAAAAAGgAACAAACBSwgAMACAAABgAAAAAAAAAAAAAAAAAAAAAAAAAREAIAAAAiQAAFAAAHAAHAYAwAAAAAAAAAAAAAAAAAAAAAAAAAAAAAAA==

>  <PUBCHEM_IUPAC_OPENEYE_NAME>
(1S,3R,5R,6S,8R,10R,11S,13R,15R,16S,18R,20R,21S,23R,25R,26S,28R,30R,31S,33R,35R,36S,38R,40R,41R,42R,43R,44R,45R,46R,47R,48R,49R,50R,51R,52R,53R,54R,55R,56R)-5,10,15,20,25,30,35,40-octakis(hydroxymethyl)-2,4,7,9,12,14,17,19,22,24,27,29,32,34,37,39-hexadecaoxanonacyclo[36.2.2.23,6.28,11.213,16.218,21.223,26.228,31.233,36]hexapentacontane-41,42,43,44,45,46,47,48,49,50,51,52,53,54,55,56-hexadecol

>  <PUBCHEM_IUPAC_CAS_NAME>
(1S,3R,5R,6S,8R,10R,11S,13R,15R,16S,18R,20R,21S,23R,25R,26S,28R,30R,31S,33R,35R,36S,38R,40R,41R,42R,43R,44R,45R,46R,47R,48R,49R,50R,51R,52R,53R,54R,55R,56R)-5,10,15,20,25,30,35,40-octakis(hydroxymethyl)-2,4,7,9,12,14,17,19,22,24,27,29,32,34,37,39-hexadecaoxanonacyclo[36.2.2.23,6.28,11.213,16.218,21.223,26.228,31.233,36]hexapentacontane-41,42,43,44,45,46,47,48,49,50,51,52,53,54,55,56-hexadecol

>  <PUBCHEM_IUPAC_NAME_MARKUP>
(1<I>S</I>,3<I>R</I>,5<I>R</I>,6<I>S</I>,8<I>R</I>,10<I>R</I>,11<I>S</I>,13<I>R</I>,15<I>R</I>,16<I>S</I>,18<I>R</I>,20<I>R</I>,21<I>S</I>,23<I>R</I>,25<I>R</I>,26<I>S</I>,28<I>R</I>,30<I>R</I>,31<I>S</I>,33<I>R</I>,35<I>R</I>,36<I>S</I>,38<I>R</I>,40<I>R</I>,41<I>R</I>,42<I>R</I>,43<I>R</I>,44<I>R</I>,45<I>R</I>,46<I>R</I>,47<I>R</I>,48<I>R</I>,49<I>R</I>,50<I>R</I>,51<I>R</I>,52<I>R</I>,53<I>R</I>,54<I>R</I>,55<I>R</I>,56<I>R</I>)-5,10,15,20,25,30,35,40-octakis(hydroxymethyl)-2,4,7,9,12,14,17,19,22,24,27,29,32,34,37,39-hexadecaoxanonacyclo[36.2.2.2<SUP>3,6</SUP>.2<SUP>8,11</SUP>.2<SUP>13,16</SUP>.2<SUP>18,21</SUP>.2<SUP>23,26</SUP>.2<SUP>28,31</SUP>.2<SUP>33,36</SUP>]hexapentacontane-41,42,43,44,45,46,47,48,49,50,51,52,53,54,55,56-hexadecol

>  <PUBCHEM_IUPAC_NAME>
(1S,3R,5R,6S,8R,10R,11S,13R,15R,16S,18R,20R,21S,23R,25R,26S,28R,30R,31S,33R,35R,36S,38R,40R,41R,42R,43R,44R,45R,46R,47R,48R,49R,50R,51R,52R,53R,54R,55R,56R)-5,10,15,20,25,30,35,40-octakis(hydroxymethyl)-2,4,7,9,12,14,17,19,22,24,27,29,32,34,37,39-hexadecaoxanonacyclo[36.2.2.23,6.28,11.213,16.218,21.223,26.228,31.233,36]hexapentacontane-41,42,43,44,45,46,47,48,49,50,51,52,53,54,55,56-hexadecol

>  <PUBCHEM_IUPAC_SYSTEMATIC_NAME>
(1S,3R,5R,6S,8R,10R,11S,13R,15R,16S,18R,20R,21S,23R,25R,26S,28R,30R,31S,33R,35R,36S,38R,40R,41R,42R,43R,44R,45R,46R,47R,48R,49R,50R,51R,52R,53R,54R,55R,56R)-5,10,15,20,25,30,35,40-octakis(hydroxymethyl)-2,4,7,9,12,14,17,19,22,24,27,29,32,34,37,39-hexadecaoxanonacyclo[36.2.2.23,6.28,11.213,16.218,21.223,26.228,31.233,36]hexapentacontane-41,42,43,44,45,46,47,48,49,50,51,52,53,54,55,56-hexadecol

>  <PUBCHEM_IUPAC_TRADITIONAL_NAME>
(1S,3R,5R,6S,8R,10R,11S,13R,15R,16S,18R,20R,21S,23R,25R,26S,28R,30R,31S,33R,35R,36S,38R,40R,41R,42R,43R,44R,45R,46R,47R,48R,49R,50R,51R,52R,53R,54R,55R,56R)-5,10,15,20,25,30,35,40-octamethylol-2,4,7,9,12,14,17,19,22,24,27,29,32,34,37,39-hexadecaoxanonacyclo[36.2.2.23,6.28,11.213,16.218,21.223,26.228,31.233,36]hexapentacontane-41,42,43,44,45,46,47,48,49,50,51,52,53,54,55,56-hexadecol

>  <PUBCHEM_IUPAC_INCHI>
InChI=1S/C48H80O40/c49-1-9-33-17(57)25(65)41(73-9)82-34-10(2-50)75-43(27(67)19(34)59)84-36-12(4-52)77-45(29(69)21(36)61)86-38-14(6-54)79-47(31(71)23(38)63)88-40-16(8-56)80-48(32(72)24(40)64)87-39-15(7-55)78-46(30(70)22(39)62)85-37-13(5-53)76-44(28(68)20(37)60)83-35-11(3-51)74-42(81-33)26(66)18(35)58/h9-72H,1-8H2/t9-,10-,11-,12-,13-,14-,15-,16-,17-,18-,19-,20-,21-,22-,23-,24-,25-,26-,27-,28-,29-,30-,31-,32-,33-,34-,35-,36-,37-,38-,39-,40-,41-,42-,43-,44-,45-,46-,47-,48-/m1/s1

>  <PUBCHEM_IUPAC_INCHIKEY>
GDSRMADSINPKSL-HSEONFRVSA-N

>  <PUBCHEM_XLOGP3_AA>
-17.2

>  <PUBCHEM_EXACT_MASS>
1296.4225873

>  <PUBCHEM_MOLECULAR_FORMULA>
C48H80O40

>  <PUBCHEM_MOLECULAR_WEIGHT>
1297.1

>  <PUBCHEM_OPENEYE_CAN_SMILES>
C(C1C2C(C(C(O1)OC3C(OC(C(C3O)O)OC4C(OC(C(C4O)O)OC5C(OC(C(C5O)O)OC6C(OC(C(C6O)O)OC7C(OC(C(C7O)O)OC8C(OC(C(C8O)O)OC9C(OC(O2)C(C9O)O)CO)CO)CO)CO)CO)CO)CO)O)O)O

>  <PUBCHEM_OPENEYE_ISO_SMILES>
C([C@@H]1[C@@H]2[C@@H]([C@H]([C@H](O1)O[C@@H]3[C@H](O[C@@H]([C@@H]([C@H]3O)O)O[C@@H]4[C@H](O[C@@H]([C@@H]([C@H]4O)O)O[C@@H]5[C@H](O[C@@H]([C@@H]([C@H]5O)O)O[C@@H]6[C@H](O[C@@H]([C@@H]([C@H]6O)O)O[C@@H]7[C@H](O[C@@H]([C@@H]([C@H]7O)O)O[C@@H]8[C@H](O[C@@H]([C@@H]([C@H]8O)O)O[C@@H]9[C@H](O[C@H](O2)[C@@H]([C@H]9O)O)CO)CO)CO)CO)CO)CO)CO)O)O)O

>  <PUBCHEM_CACTVS_TPSA>
633

>  <PUBCHEM_MONOISOTOPIC_WEIGHT>
1296.4225873

>  <PUBCHEM_TOTAL_CHARGE>
0

>  <PUBCHEM_HEAVY_ATOM_COUNT>
88

>  <PUBCHEM_ATOM_DEF_STEREO_COUNT>
40

>  <PUBCHEM_ATOM_UDEF_STEREO_COUNT>
0

>  <PUBCHEM_BOND_DEF_STEREO_COUNT>
0

>  <PUBCHEM_BOND_UDEF_STEREO_COUNT>
0

>  <PUBCHEM_ISOTOPIC_ATOM_COUNT>
0

>  <PUBCHEM_COMPONENT_COUNT>
1

>  <PUBCHEM_CACTVS_TAUTO_COUNT>
-1

>  <PUBCHEM_COORDINATE_TYPE>
1
5
255

>  <PUBCHEM_BONDANNOTATIONS>
49  17  5
50  18  6
51  19  5
52  20  5
53  21  6
54  22  6
55  23  6
56  24  6
65  25  6
66  26  6
67  27  5
68  28  6
69  29  5
70  30  5
71  31  5
72  32  5
41  89  5
42  90  6
43  91  5
44  92  5
45  93  6
46  94  6
47  95  6
48  96  6
57  105  5
58  106  5
59  107  6
60  108  6
61  109  5
62  110  6
63  111  6
64  112  6
73  81  5
74  82  6
75  83  5
76  84  5
77  85  6
78  86  6
79  87  6
80  88  6

$$$$
