341352591
  -OEChem-10092311182D

101107  0     1  0  0  0  0  0999 V2000
    0.0000   -0.4334    0.0000 O   0  0  0  0  0  0  0  0  0  0  0  0
    0.8290    0.0441    0.0000 O   0  0  0  0  0  0  0  0  0  0  0  0
   -0.8286    0.0446    0.0000 O   0  0  0  0  0  0  0  0  0  0  0  0
    0.8290    1.0020    0.0000 O   0  0  0  0  0  0  0  0  0  0  0  0
    0.5258   -0.0441    0.0000 O   0  0  0  0  0  0  0  0  0  0  0  0
   -0.8286    1.0025    0.0000 O   0  0  0  0  0  0  0  0  0  0  0  0
    0.0000    1.4805    0.0000 O   0  0  0  0  0  0  0  0  0  0  0  0
   -0.2303   -0.2158    0.0000 O   0  0  0  0  0  0  0  0  0  0  0  0
    0.7562    0.6915    0.0000 O   0  0  0  0  0  0  0  0  0  0  0  0
   -0.7553    0.3542    0.0000 O   0  0  0  0  0  0  0  0  0  0  0  0
    0.2326    1.2629    0.0000 O   0  0  0  0  0  0  0  0  0  0  0  0
   -0.5240    1.0940    0.0000 O   0  0  0  0  0  0  0  0  0  0  0  0
    0.5376   -1.0703    0.0000 O   0  0  0  0  0  0  0  0  0  0  0  0
    1.0129   -0.6769    0.0000 O   0  0  0  0  0  0  0  0  0  0  0  0
    1.5443    0.2454    0.0000 O   0  0  0  0  0  0  0  0  0  0  0  0
   -1.0121   -0.6738    0.0000 O   0  0  0  0  0  0  0  0  0  0  0  0
   -0.5336   -0.9510    0.0000 O   0  0  0  0  0  0  0  0  0  0  0  0
    1.0121    1.7218    0.0000 O   0  0  0  0  0  0  0  0  0  0  0  0
    1.5443    0.7971    0.0000 O   0  0  0  0  0  0  0  0  0  0  0  0
   -1.5443    0.8013    0.0000 O   0  0  0  0  0  0  0  0  0  0  0  0
   -0.5312    2.0000    0.0000 O   0  0  0  0  0  0  0  0  0  0  0  0
   -1.5443    0.2490    0.0000 O   0  0  0  0  0  0  0  0  0  0  0  0
    0.5336    1.9981    0.0000 O   0  0  0  0  0  0  0  0  0  0  0  0
   -1.0102    1.7232    0.0000 O   0  0  0  0  0  0  0  0  0  0  0  0
   -0.2627   -0.0359    0.0000 O   0  0  0  0  0  0  0  0  0  0  0  0
    0.2526    0.3501    0.0000 O   0  0  0  0  0  0  0  0  0  0  0  0
   -0.2349    0.3351    0.0000 O   0  0  0  0  0  0  0  0  0  0  0  0
    0.2627    0.6934    0.0000 O   0  0  0  0  0  0  0  0  0  0  0  0
   -0.2531    0.6628    0.0000 O   0  0  0  0  0  0  0  0  0  0  0  0
    0.0314    0.8104    0.0000 O   0  0  0  0  0  0  0  0  0  0  0  0
    1.1291   -1.7746    0.0000 O   0  0  0  0  0  0  0  0  0  0  0  0
    0.2294   -0.5567    0.0000 C   0  0  3  0  0  0  0  0  0  0  0  0
    0.5258   -0.7289    0.0000 C   0  0  3  0  0  0  0  0  0  0  0  0
    1.0508    0.1812    0.0000 C   0  0  3  0  0  0  0  0  0  0  0  0
   -0.8204   -0.2158    0.0000 C   0  0  3  0  0  0  0  0  0  0  0  0
    0.8222   -0.5577    0.0000 C   0  0  3  0  0  0  0  0  0  0  0  0
    0.8222   -0.2158    0.0000 C   0  0  3  0  0  0  0  0  0  0  0  0
    0.8208    1.2629    0.0000 C   0  0  3  0  0  0  0  0  0  0  0  0
   -1.0503    0.8654    0.0000 C   0  0  3  0  0  0  0  0  0  0  0  0
   -0.2294    1.6039    0.0000 C   0  0  3  0  0  0  0  0  0  0  0  0
   -0.2299   -0.5554    0.0000 C   0  0  3  0  0  0  0  0  0  0  0  0
    1.3458    0.3510    0.0000 C   0  0  3  0  0  0  0  0  0  0  0  0
   -0.8204   -0.5545    0.0000 C   0  0  3  0  0  0  0  0  0  0  0  0
   -0.5258   -0.7261    0.0000 C   0  0  3  0  0  0  0  0  0  0  0  0
    1.0508    0.8623    0.0000 C   0  0  3  0  0  0  0  0  0  0  0  0
    1.3458    0.6915    0.0000 C   0  0  3  0  0  0  0  0  0  0  0  0
    0.8208    1.6025    0.0000 C   0  0  3  0  0  0  0  0  0  0  0  0
   -1.3458    0.6956    0.0000 C   0  0  3  0  0  0  0  0  0  0  0  0
    0.2294   -0.2158    0.0000 C   0  0  3  0  0  0  0  0  0  0  0  0
   -1.0503    0.1844    0.0000 C   0  0  3  0  0  0  0  0  0  0  0  0
   -0.5235    1.7746    0.0000 C   0  0  3  0  0  0  0  0  0  0  0  0
    0.2313    1.6034    0.0000 C   0  0  3  0  0  0  0  0  0  0  0  0
   -0.8186    1.2638    0.0000 C   0  0  3  0  0  0  0  0  0  0  0  0
   -1.3458    0.3542    0.0000 C   0  0  3  0  0  0  0  0  0  0  0  0
    0.5263    1.7733    0.0000 C   0  0  3  0  0  0  0  0  0  0  0  0
   -0.8194    1.6039    0.0000 C   0  0  3  0  0  0  0  0  0  0  0  0
    0.7562    0.3514    0.0000 C   0  0  3  0  0  0  0  0  0  0  0  0
   -0.5263   -0.0451    0.0000 C   0  0  3  0  0  0  0  0  0  0  0  0
    0.5267    1.0935    0.0000 C   0  0  3  0  0  0  0  0  0  0  0  0
   -0.7557    0.6961    0.0000 C   0  0  3  0  0  0  0  0  0  0  0  0
   -0.2294    1.2647    0.0000 C   0  0  3  0  0  0  0  0  0  0  0  0
   -0.0396   -0.0050    0.0000 C   0  0  0  0  0  0  0  0  0  0  0  0
    0.4389    0.2239    0.0000 C   0  0  0  0  0  0  0  0  0  0  0  0
   -0.4553    0.2886    0.0000 C   0  0  0  0  0  0  0  0  0  0  0  0
    0.4794    0.7548    0.0000 C   0  0  0  0  0  0  0  0  0  0  0  0
   -0.4306    0.8013    0.0000 C   0  0  0  0  0  0  0  0  0  0  0  0
    0.0241    1.0357    0.0000 C   0  0  0  0  0  0  0  0  0  0  0  0
    0.8272   -1.2515    0.0000 C   0  0  0  0  0  0  0  0  0  0  0  0
    0.8390   -1.5934    0.0000 C   0  0  3  0  0  0  0  0  0  0  0  0
    0.6478   -1.7127    0.0000 C   0  0  0  0  0  0  0  0  0  0  0  0
    0.1798   -0.7421    0.0000 H   0  0  0  0  0  0  0  0  0  0  0  0
    0.4052   -0.8778    0.0000 H   0  0  0  0  0  0  0  0  0  0  0  0
    1.2101    0.0218    0.0000 H   0  0  0  0  0  0  0  0  0  0  0  0
   -1.0380   -0.2736    0.0000 H   0  0  0  0  0  0  0  0  0  0  0  0
    0.9902   -0.4648    0.0000 H   0  0  0  0  0  0  0  0  0  0  0  0
    1.0261   -0.3109    0.0000 H   0  0  0  0  0  0  0  0  0  0  0  0
    1.0384    1.3212    0.0000 H   0  0  0  0  0  0  0  0  0  0  0  0
   -0.8258    0.8499    0.0000 H   0  0  0  0  0  0  0  0  0  0  0  0
   -0.1711    1.8219    0.0000 H   0  0  0  0  0  0  0  0  0  0  0  0
   -0.1803   -0.7407    0.0000 H   0  0  0  0  0  0  0  0  0  0  0  0
    1.3489    0.1593    0.0000 H   0  0  0  0  0  0  0  0  0  0  0  0
   -0.9879   -0.4616    0.0000 H   0  0  0  0  0  0  0  0  0  0  0  0
   -0.3614   -0.8249    0.0000 H   0  0  0  0  0  0  0  0  0  0  0  0
    1.2101    1.0216    0.0000 H   0  0  0  0  0  0  0  0  0  0  0  0
    0.9888    1.5096    0.0000 H   0  0  0  0  0  0  0  0  0  0  0  0
    1.3489    0.8832    0.0000 H   0  0  0  0  0  0  0  0  0  0  0  0
   -1.3489    0.8873    0.0000 H   0  0  0  0  0  0  0  0  0  0  0  0
   -0.8258    0.1998    0.0000 H   0  0  0  0  0  0  0  0  0  0  0  0
    0.0387   -0.2353    0.0000 H   0  0  0  0  0  0  0  0  0  0  0  0
   -0.3592    1.8734    0.0000 H   0  0  0  0  0  0  0  0  0  0  0  0
    0.1734    1.8211    0.0000 H   0  0  0  0  0  0  0  0  0  0  0  0
   -1.0366    1.3221    0.0000 H   0  0  0  0  0  0  0  0  0  0  0  0
   -1.3489    0.1625    0.0000 H   0  0  0  0  0  0  0  0  0  0  0  0
    0.3619    1.8721    0.0000 H   0  0  0  0  0  0  0  0  0  0  0  0
   -0.9874    1.5110    0.0000 H   0  0  0  0  0  0  0  0  0  0  0  0
    0.6779    0.1762    0.0000 H   0  0  0  0  0  0  0  0  0  0  0  0
   -0.6305    0.1161    0.0000 H   0  0  0  0  0  0  0  0  0  0  0  0
    0.6396    0.9383    0.0000 H   0  0  0  0  0  0  0  0  0  0  0  0
   -0.6688    0.8668    0.0000 H   0  0  0  0  0  0  0  0  0  0  0  0
   -0.0378    1.2743    0.0000 H   0  0  0  0  0  0  0  0  0  0  0  0
    1.1363   -2.0000    0.0000 H   0  0  0  0  0  0  0  0  0  0  0  0
  1 32  1  0  0  0  0
  1 41  1  0  0  0  0
  2 34  1  0  0  0  0
  2 37  1  0  0  0  0
  3 35  1  0  0  0  0
  3 50  1  0  0  0  0
  4 38  1  0  0  0  0
  4 45  1  0  0  0  0
  5 37  1  0  0  0  0
  5 49  1  0  0  0  0
  6 39  1  0  0  0  0
  6 53  1  0  0  0  0
  7 40  1  0  0  0  0
  7 52  1  0  0  0  0
  8 41  1  0  0  0  0
  8 58  1  0  0  0  0
  9 45  1  0  0  0  0
  9 57  1  0  0  0  0
 10 50  1  0  0  0  0
 10 60  1  0  0  0  0
 11 52  1  0  0  0  0
 11 59  1  0  0  0  0
 12 53  1  0  0  0  0
 12 61  1  0  0  0  0
 13 33  1  0  0  0  0
 13 68  1  0  0  0  0
 14 36  1  0  0  0  0
 15 42  1  0  0  0  0
 16 43  1  0  0  0  0
 17 44  1  0  0  0  0
 18 47  1  0  0  0  0
 19 46  1  0  0  0  0
 20 48  1  0  0  0  0
 21 51  1  0  0  0  0
 22 54  1  0  0  0  0
 23 55  1  0  0  0  0
 24 56  1  0  0  0  0
 25 62  1  0  0  0  0
 26 63  1  0  0  0  0
 27 64  1  0  0  0  0
 28 65  1  0  0  0  0
 29 66  1  0  0  0  0
 30 67  1  0  0  0  0
 31 69  1  0  0  0  0
 31101  1  0  0  0  0
 32 33  1  0  0  0  0
 32 49  1  0  0  0  0
 32 71  1  6  0  0  0
 33 36  1  0  0  0  0
 33 72  1  6  0  0  0
 34 42  1  0  0  0  0
 34 57  1  0  0  0  0
 34 73  1  1  0  0  0
 35 43  1  0  0  0  0
 35 58  1  0  0  0  0
 35 74  1  1  0  0  0
 36 37  1  0  0  0  0
 36 75  1  1  0  0  0
 37 76  1  1  0  0  0
 38 47  1  0  0  0  0
 38 59  1  0  0  0  0
 38 77  1  1  0  0  0
 39 48  1  0  0  0  0
 39 60  1  0  0  0  0
 39 78  1  1  0  0  0
 40 51  1  0  0  0  0
 40 61  1  0  0  0  0
 40 79  1  1  0  0  0
 41 44  1  0  0  0  0
 41 80  1  1  0  0  0
 42 46  1  0  0  0  0
 42 81  1  6  0  0  0
 43 44  1  0  0  0  0
 43 82  1  6  0  0  0
 44 83  1  1  0  0  0
 45 46  1  0  0  0  0
 45 84  1  1  0  0  0
 46 86  1  1  0  0  0
 47 55  1  0  0  0  0
 47 85  1  6  0  0  0
 48 54  1  0  0  0  0
 48 87  1  6  0  0  0
 49 62  1  0  0  0  0
 49 89  1  6  0  0  0
 50 54  1  0  0  0  0
 50 88  1  1  0  0  0
 51 56  1  0  0  0  0
 51 90  1  6  0  0  0
 52 55  1  0  0  0  0
 52 91  1  1  0  0  0
 53 56  1  0  0  0  0
 53 92  1  1  0  0  0
 54 93  1  1  0  0  0
 55 94  1  1  0  0  0
 56 95  1  1  0  0  0
 57 63  1  0  0  0  0
 57 96  1  6  0  0  0
 58 64  1  0  0  0  0
 58 97  1  6  0  0  0
 59 65  1  0  0  0  0
 59 98  1  6  0  0  0
 60 66  1  0  0  0  0
 60 99  1  6  0  0  0
 61 67  1  0  0  0  0
 61100  1  6  0  0  0
 68 69  1  0  0  0  0
 69 70  1  0  0  0  0
M  END
> <PUBCHEM_COMPOUND_ID_TYPE>
0

> <PUBCHEM_TOTAL_CHARGE>
0

> <PUBCHEM_SUBSTANCE_ID>
341352591

> <PUBCHEM_SUBSTANCE_VERSION>
1

> <PUBCHEM_EXT_DATASOURCE_NAME>
15745

> <PUBCHEM_EXT_DATASOURCE_REGID>
70106944-504201891

> <PUBCHEM_SUBSTANCE_COMMENT>
This substance has the INFOCHEM hashcode: 70106944-504201891

> <PUBCHEM_SUBSTANCE_SYNONYM>
2-hydroxypropyl-cyclodextrin

> <PUBCHEM_XREF_EXT_ID>
70106944-504201891

> <PUBCHEM_EXT_DATASOURCE_URL>
https://link.springer.com

> <PUBCHEM_CID_ASSOCIATIONS>
129688311  1

> <PUBCHEM_COORDINATE_TYPE>
1
3

> <PUBCHEM_BONDANNOTATIONS>
32  71  6
33  72  6
34  73  5
35  74  5
36  75  5
37  76  5
38  77  5
39  78  5
40  79  5
41  80  5
42  81  6
43  82  6
44  83  5
45  84  5
46  86  5
47  85  6
48  87  6
49  89  6
50  88  5
51  90  6
52  91  5
53  92  5
54  93  5
55  94  5
56  95  5
57  96  6
58  97  6
59  98  6
60  99  6
61  100  6

$$$$
