3035727
  -OEChem-01192406173D

 43 45  0     1  0  0  0  0  0999 V2000
    1.4802   -0.5433   -0.0147 O   0  0  0  0  0  0  0  0  0  0  0  0
    0.6261    1.3639    1.0230 O   0  0  0  0  0  0  0  0  0  0  0  0
    5.3454    0.6052    0.7654 O   0  0  0  0  0  0  0  0  0  0  0  0
    4.8225   -1.4230   -1.2267 O   0  0  0  0  0  0  0  0  0  0  0  0
    3.1681    2.5896    0.8133 O   0  0  0  0  0  0  0  0  0  0  0  0
    0.7951   -2.6557   -1.6348 O   0  0  0  0  0  0  0  0  0  0  0  0
   -4.9460    0.6824   -1.0849 O   0  0  0  0  0  0  0  0  0  0  0  0
   -1.1004   -2.8726    1.4794 O   0  0  0  0  0  0  0  0  0  0  0  0
   -3.1653   -3.6137    0.8336 O   0  0  0  0  0  0  0  0  0  0  0  0
   -1.4805   -0.4740    0.6612 N   0  0  0  0  0  0  0  0  0  0  0  0
    4.1414    0.5369   -0.0003 C   0  0  1  0  0  0  0  0  0  0  0  0
    3.8552   -0.9344   -0.3011 C   0  0  1  0  0  0  0  0  0  0  0  0
    2.9982    1.1726    0.7908 C   0  0  2  0  0  0  0  0  0  0  0  0
    2.4551   -1.1049   -0.8953 C   0  0  1  0  0  0  0  0  0  0  0  0
    1.6428    0.8628    0.1556 C   0  0  1  0  0  0  0  0  0  0  0  0
    2.1016   -2.5753   -1.0950 C   0  0  0  0  0  0  0  0  0  0  0  0
   -0.5409    1.7637    0.4316 C   0  0  0  0  0  0  0  0  0  0  0  0
   -1.5889    0.8600    0.2487 C   0  0  0  0  0  0  0  0  0  0  0  0
   -2.7742    1.3093   -0.3628 C   0  0  0  0  0  0  0  0  0  0  0  0
   -0.6663    3.0882    0.0158 C   0  0  0  0  0  0  0  0  0  0  0  0
   -2.9047    2.6358   -0.7811 C   0  0  0  0  0  0  0  0  0  0  0  0
   -1.8460    3.5228   -0.5892 C   0  0  0  0  0  0  0  0  0  0  0  0
   -3.8927    0.3471   -0.5583 C   0  0  0  0  0  0  0  0  0  0  0  0
   -2.5117   -1.3560    0.4789 C   0  0  0  0  0  0  0  0  0  0  0  0
   -3.6864   -1.0516   -0.0888 C   0  0  0  0  0  0  0  0  0  0  0  0
   -2.3278   -2.7359    0.9359 C   0  0  0  0  0  0  0  0  0  0  0  0
    4.3298    1.0978   -0.9241 H   0  0  0  0  0  0  0  0  0  0  0  0
    3.9572   -1.5212    0.6201 H   0  0  0  0  0  0  0  0  0  0  0  0
    3.0234    0.8336    1.8333 H   0  0  0  0  0  0  0  0  0  0  0  0
    2.3758   -0.6023   -1.8689 H   0  0  0  0  0  0  0  0  0  0  0  0
    1.5650    1.3590   -0.8229 H   0  0  0  0  0  0  0  0  0  0  0  0
    2.1040   -3.1205   -0.1453 H   0  0  0  0  0  0  0  0  0  0  0  0
    2.7911   -3.0677   -1.7865 H   0  0  0  0  0  0  0  0  0  0  0  0
    6.0476    0.1821    0.2420 H   0  0  0  0  0  0  0  0  0  0  0  0
    4.7347   -0.9132   -2.0500 H   0  0  0  0  0  0  0  0  0  0  0  0
    3.1425    2.9111   -0.1042 H   0  0  0  0  0  0  0  0  0  0  0  0
    0.1925   -2.2106   -1.0145 H   0  0  0  0  0  0  0  0  0  0  0  0
    0.1515    3.7892    0.1601 H   0  0  0  0  0  0  0  0  0  0  0  0
   -0.6278   -0.7949    1.1001 H   0  0  0  0  0  0  0  0  0  0  0  0
   -3.8151    2.9928   -1.2540 H   0  0  0  0  0  0  0  0  0  0  0  0
   -1.9399    4.5559   -0.9117 H   0  0  0  0  0  0  0  0  0  0  0  0
   -4.5000   -1.7528   -0.2308 H   0  0  0  0  0  0  0  0  0  0  0  0
   -0.9372   -3.7861    1.7976 H   0  0  0  0  0  0  0  0  0  0  0  0
  1 14  1  0  0  0  0
  1 15  1  0  0  0  0
  2 15  1  0  0  0  0
  2 17  1  0  0  0  0
  3 11  1  0  0  0  0
  3 34  1  0  0  0  0
  4 12  1  0  0  0  0
  4 35  1  0  0  0  0
  5 13  1  0  0  0  0
  5 36  1  0  0  0  0
  6 16  1  0  0  0  0
  6 37  1  0  0  0  0
  7 23  2  0  0  0  0
  8 26  1  0  0  0  0
  8 43  1  0  0  0  0
  9 26  2  0  0  0  0
 10 18  1  0  0  0  0
 10 24  1  0  0  0  0
 10 39  1  0  0  0  0
 11 12  1  0  0  0  0
 11 13  1  0  0  0  0
 11 27  1  0  0  0  0
 12 14  1  0  0  0  0
 12 28  1  0  0  0  0
 13 15  1  0  0  0  0
 13 29  1  0  0  0  0
 14 16  1  0  0  0  0
 14 30  1  0  0  0  0
 15 31  1  0  0  0  0
 16 32  1  0  0  0  0
 16 33  1  0  0  0  0
 17 18  1  0  0  0  0
 17 20  2  0  0  0  0
 18 19  2  0  0  0  0
 19 21  1  0  0  0  0
 19 23  1  0  0  0  0
 20 22  1  0  0  0  0
 20 38  1  0  0  0  0
 21 22  2  0  0  0  0
 21 40  1  0  0  0  0
 22 41  1  0  0  0  0
 23 25  1  0  0  0  0
 24 25  2  0  0  0  0
 24 26  1  0  0  0  0
 25 42  1  0  0  0  0
M  END
> <PUBCHEM_COMPOUND_CID>
3035727

> <PUBCHEM_CONFORMER_RMSD>
0.8

> <PUBCHEM_CONFORMER_DIVERSEORDER>
1
5
15
45
74
41
64
10
35
86
44
65
73
71
54
59
11
37
83
20
55
25
4
52
40
60
56
68
2
9
46
67
18
3
36
57
79
19
76
58
78
33
31
84
22
49
47
77
69
80
17
26
6
39
38
28
50
12
29
53
8
14
16
81
30
85
34
70
24
75
48
27
82
23
62
43
63
13
21
66
42
7
72
32
51
61

> <PUBCHEM_MMFF94_PARTIAL_CHARGES>
36
1 -0.56
10 -0.6
11 0.28
12 0.28
13 0.28
14 0.28
15 0.56
16 0.28
17 0.08
18 0.1
19 0.09
2 -0.36
20 -0.15
21 -0.15
22 -0.15
23 0.47
24 0.11
25 -0.14
26 0.71
3 -0.68
34 0.4
35 0.4
36 0.4
37 0.4
38 0.15
39 0.4
4 -0.68
40 0.15
41 0.15
42 0.15
43 0.5
5 -0.68
6 -0.68
7 -0.57
8 -0.65
9 -0.57

> <PUBCHEM_EFFECTIVE_ROTOR_COUNT>
5.2

> <PUBCHEM_PHARMACOPHORE_FEATURES>
19
1 1 acceptor
1 10 cation
1 10 donor
1 2 acceptor
1 3 acceptor
1 3 donor
1 4 acceptor
1 4 donor
1 5 acceptor
1 5 donor
1 6 acceptor
1 6 donor
1 7 acceptor
1 8 acceptor
1 9 acceptor
3 8 9 26 anion
6 1 11 12 13 14 15 rings
6 10 18 19 23 24 25 rings
6 17 18 19 20 21 22 rings

> <PUBCHEM_HEAVY_ATOM_COUNT>
26

> <PUBCHEM_ATOM_DEF_STEREO_COUNT>
5

> <PUBCHEM_ATOM_UDEF_STEREO_COUNT>
0

> <PUBCHEM_BOND_DEF_STEREO_COUNT>
0

> <PUBCHEM_BOND_UDEF_STEREO_COUNT>
0

> <PUBCHEM_ISOTOPIC_ATOM_COUNT>
0

> <PUBCHEM_COMPONENT_COUNT>
1

> <PUBCHEM_CACTVS_TAUTO_COUNT>
3

> <PUBCHEM_CONFORMER_ID>
002E524F00000001

> <PUBCHEM_MMFF94_ENERGY>
85.9588

> <PUBCHEM_FEATURE_SELFOVERLAP>
96.569

> <PUBCHEM_SHAPE_FINGERPRINT>
10366900 7 18343024354738890180
10616163 171 18411418440309975432
10693767 8 18127663030183353591
108634 29 18410579452798300206
10906281 52 18339938064249712189
11370993 70 18264485096510396878
11578080 2 15364953310715591221
12035758 1 18335997449573448275
12553582 1 18265637496455321197
12596599 1 16629974325015080310
12788726 201 18338227155569181241
13034934 17 17984968543694139592
13140716 1 18340777034328226824
13402501 40 18413388743724971591
14363568 33 17327203420068242697
14931854 50 18193276286889683711
19591789 44 15957532027287607761
221490 88 18342182176483004432
22182313 1 18131075922759941366
22393880 68 18125161533433435012
23557571 272 18261673791233312537
23558518 356 18196378013497435113
23559900 14 18410852174937584032
2748010 2 18269838781787341968
2871803 45 18340764853901331836
8809292 202 18410860927753443968
9709674 26 18341050731277419692

> <PUBCHEM_SHAPE_MULTIPOLES>
477.26
8.82
4.23
1.15
5.72
0.75
0.1
0.46
1.31
-2.65
-0.27
0.19
0.54
2.49

> <PUBCHEM_SHAPE_SELFOVERLAP>
1031.622

> <PUBCHEM_SHAPE_VOLUME>
256.9

> <PUBCHEM_COORDINATE_TYPE>
2
5
10

$$$$
