138319308
  Mrv2312 10112308293D          

217224  0  0  1  0            999 V2000
   -1.1196   -9.0490    2.0689 O   0  0  0  0  0  0  0  0  0  0  0  0
    1.2553  -10.7800   -1.8740 O   0  0  0  0  0  0  0  0  0  0  0  0
   -4.6363   -6.1146    1.5183 O   0  0  0  0  0  0  0  0  0  0  0  0
    3.3368   -9.0359   -2.7445 O   0  0  0  0  0  0  0  0  0  0  0  0
   -4.2920   -3.2388   -1.8019 O   0  0  0  0  0  0  0  0  0  0  0  0
    2.2800   -4.7690   -3.1679 O   0  0  0  0  0  0  0  0  0  0  0  0
   -0.8474   -1.9060   -4.0741 O   0  0  0  0  0  0  0  0  0  0  0  0
   -1.1149  -10.6022    0.2702 O   0  0  0  0  0  0  0  0  0  0  0  0
   -3.9992   -8.4084    1.5286 O   0  0  0  0  0  0  0  0  0  0  0  0
    1.2667  -10.4923   -4.1963 O   0  0  0  0  0  0  0  0  0  0  0  0
   -4.5118   -5.4720   -1.3587 O   0  0  0  0  0  0  0  0  0  0  0  0
    3.9704   -7.0491   -3.8634 O   0  0  0  0  0  0  0  0  0  0  0  0
   -3.1229   -2.5531   -4.3247 O   0  0  0  0  0  0  0  0  0  0  0  0
    0.3811   -4.5365   -4.3138 O   0  0  0  0  0  0  0  0  0  0  0  0
   -1.1304   -7.6824    4.4992 O   0  0  0  0  0  0  0  0  0  0  0  0
    3.0777  -10.6373    0.1936 O   0  0  0  0  0  0  0  0  0  0  0  0
   -7.0442   -4.7047    1.9239 O   0  0  0  0  0  0  0  0  0  0  0  0
    4.6675  -11.2533   -2.0754 O   0  0  0  0  0  0  0  0  0  0  0  0
   -4.0570   -0.6719   -0.6791 O   0  0  0  0  0  0  0  0  0  0  0  0
    2.9255   -4.7805   -0.5076 O   0  0  0  0  0  0  0  0  0  0  0  0
    1.1591   -0.5942   -5.5136 O   0  0  0  0  0  0  0  0  0  0  0  0
    1.6517   -9.3820    2.3651 O   0  0  0  0  0  0  0  0  0  0  0  0
   -3.1696   -5.7240    3.9406 O   0  0  0  0  0  0  0  0  0  0  0  0
    2.6780  -13.1073   -4.4150 O   0  0  0  0  0  0  0  0  0  0  0  0
   -6.6162   -2.6802   -0.0504 O   0  0  0  0  0  0  0  0  0  0  0  0
    3.6268   -7.6229   -0.2124 O   0  0  0  0  0  0  0  0  0  0  0  0
   -1.6462    0.0663   -2.1230 O   0  0  0  0  0  0  0  0  0  0  0  0
    3.3463   -2.3752   -4.9588 O   0  0  0  0  0  0  0  0  0  0  0  0
   -5.7560  -10.5112    2.1493 O   0  0  0  0  0  0  0  0  0  0  0  0
   -2.2452  -13.2080    0.7047 O   0  0  0  0  0  0  0  0  0  0  0  0
   -5.4469   -7.9491   -2.8245 O   0  0  0  0  0  0  0  0  0  0  0  0
    3.0394   -9.6973   -7.2370 O   0  0  0  0  0  0  0  0  0  0  0  0
   -6.6351   -1.4335   -4.8612 O   0  0  0  0  0  0  0  0  0  0  0  0
    6.6558   -6.6630   -4.5158 O   0  0  0  0  0  0  0  0  0  0  0  0
   -0.7845   -6.0834   -6.5548 O   0  0  0  0  0  0  0  0  0  0  0  0
   -8.4004  -10.2325    1.0700 O   0  0  0  0  0  0  0  0  0  0  0  0
   -3.8689  -13.6722    3.0354 O   0  0  0  0  0  0  0  0  0  0  0  0
   -4.3067   -8.8525   -5.2656 O   0  0  0  0  0  0  0  0  0  0  0  0
    1.9698   -9.4541   -9.9133 O   0  0  0  0  0  0  0  0  0  0  0  0
   -9.1830   -2.2339   -5.6485 O   0  0  0  0  0  0  0  0  0  0  0  0
    7.8687   -9.1820   -4.8743 O   0  0  0  0  0  0  0  0  0  0  0  0
   -0.8534   -8.9247   -6.4860 O   0  0  0  0  0  0  0  0  0  0  0  0
   -2.2133   -9.2953    2.9903 C   0  0  1  0  0  0  0  0  0  0  0  0
    0.9909  -11.5925   -0.6996 C   0  0  1  0  0  0  0  0  0  0  0  0
   -5.7544   -6.3198    0.6214 C   0  0  1  0  0  0  0  0  0  0  0  0
    3.6828   -9.8941   -3.8586 C   0  0  1  0  0  0  0  0  0  0  0  0
   -4.7537   -2.0858   -2.5444 C   0  0  1  0  0  0  0  0  0  0  0  0
    3.6923   -4.8479   -2.8381 C   0  0  1  0  0  0  0  0  0  0  0  0
   -0.4222   -2.4468   -5.3485 C   0  0  1  0  0  0  0  0  0  0  0  0
   -2.3721   -8.0300    3.8828 C   0  0  2  0  0  0  0  0  0  0  0  0
    1.7403  -10.9961    0.5315 C   0  0  2  0  0  0  0  0  0  0  0  0
   -6.6028   -5.0213    0.6041 C   0  0  2  0  0  0  0  0  0  0  0  0
    4.0054  -11.3331   -3.3362 C   0  0  2  0  0  0  0  0  0  0  0  0
   -3.8976   -0.8765   -2.0830 C   0  0  2  0  0  0  0  0  0  0  0  0
    3.7545   -5.5006   -1.4215 C   0  0  2  0  0  0  0  0  0  0  0  0
    1.0525   -2.0174   -5.5705 C   0  0  2  0  0  0  0  0  0  0  0  0
   -0.4548  -10.1940    1.4876 C   0  0  1  0  0  0  0  0  0  0  0  0
   -4.2300   -7.2290    2.3343 C   0  0  1  0  0  0  0  0  0  0  0  0
   -3.5417   -9.5879    2.2238 C   0  0  1  0  0  0  0  0  0  0  0  0
   -0.5480  -11.7451   -0.4193 C   0  0  1  0  0  0  0  0  0  0  0  0
    1.4176  -11.4745   -3.1409 C   0  0  1  0  0  0  0  0  0  0  0  0
   -5.2521   -4.2286   -1.3959 C   0  0  1  0  0  0  0  0  0  0  0  0
   -5.1905   -6.6262   -0.8043 C   0  0  1  0  0  0  0  0  0  0  0  0
    2.4500   -9.9168   -4.8186 C   0  0  1  0  0  0  0  0  0  0  0  0
    4.0275   -7.7772   -2.6121 C   0  0  1  0  0  0  0  0  0  0  0  0
   -2.2227   -1.4916   -3.9252 C   0  0  1  0  0  0  0  0  0  0  0  0
    1.7845   -4.2011   -4.4008 C   0  0  1  0  0  0  0  0  0  0  0  0
   -4.5306   -2.3749   -4.0572 C   0  0  1  0  0  0  0  0  0  0  0  0
    4.5132   -5.7108   -3.8500 C   0  0  1  0  0  0  0  0  0  0  0  0
   -0.5109   -4.0053   -5.3179 C   0  0  1  0  0  0  0  0  0  0  0  0
    1.0021   -9.7875    1.1614 C   0  0  1  0  0  0  0  0  0  0  0  0
   -2.9271   -6.8285    3.0719 C   0  0  1  0  0  0  0  0  0  0  0  0
    2.7564  -12.2724   -3.2583 C   0  0  1  0  0  0  0  0  0  0  0  0
   -5.7966   -3.8438    0.0062 C   0  0  1  0  0  0  0  0  0  0  0  0
    3.3323   -6.9972   -1.4601 C   0  0  1  0  0  0  0  0  0  0  0  0
   -2.4025   -1.1040   -2.4297 C   0  0  1  0  0  0  0  0  0  0  0  0
    2.0148   -2.6635   -4.5348 C   0  0  1  0  0  0  0  0  0  0  0  0
   -4.6753  -10.2410    3.0587 C   0  0  2  0  0  0  0  0  0  0  0  0
   -0.8757  -13.1050    0.2621 C   0  0  1  0  0  0  0  0  0  0  0  0
   -6.2004   -7.2893   -1.7874 C   0  0  1  0  0  0  0  0  0  0  0  0
    2.7425  -10.6273   -6.1775 C   0  0  1  0  0  0  0  0  0  0  0  0
   -5.2055   -1.3706   -5.0309 C   0  0  1  0  0  0  0  0  0  0  0  0
    6.0576   -5.6721   -3.6590 C   0  0  1  0  0  0  0  0  0  0  0  0
   -0.3825   -4.7069   -6.6996 C   0  0  1  0  0  0  0  0  0  0  0  0
   -6.8867  -11.1943    2.7110 C   0  0  1  0  0  0  0  0  0  0  0  0
   -2.5873  -14.5352    1.1670 C   0  0  1  0  0  0  0  0  0  0  0  0
   -6.2082   -8.7482   -3.7515 C   0  0  1  0  0  0  0  0  0  0  0  0
    3.6133  -10.3239   -8.4057 C   0  0  1  0  0  0  0  0  0  0  0  0
   -7.3844   -0.5959   -5.7600 C   0  0  1  0  0  0  0  0  0  0  0  0
    8.0759   -6.8201   -4.3403 C   0  0  1  0  0  0  0  0  0  0  0  0
   -0.7814   -6.8590   -7.7693 C   0  0  1  0  0  0  0  0  0  0  0  0
   -7.8842  -11.4688    1.5607 C   0  0  1  0  0  0  0  0  0  0  0  0
   -3.9445  -14.5365    1.9059 C   0  0  1  0  0  0  0  0  0  0  0  0
   -5.2224   -9.6573   -4.5276 C   0  0  1  0  0  0  0  0  0  0  0  0
    3.3722   -9.4441   -9.6532 C   0  0  1  0  0  0  0  0  0  0  0  0
   -8.8964   -0.8403   -5.5375 C   0  0  1  0  0  0  0  0  0  0  0  0
    8.5800   -7.9923   -5.2138 C   0  0  1  0  0  0  0  0  0  0  0  0
   -1.5227   -8.1939   -7.5125 C   0  0  1  0  0  0  0  0  0  0  0  0
   -9.0497  -12.3892    1.9856 C   0  0  0  0  0  0  0  0  0  0  0  0
   -4.3393  -15.9525    2.3949 C   0  0  0  0  0  0  0  0  0  0  0  0
   -5.9299  -10.6446   -5.4855 C   0  0  0  0  0  0  0  0  0  0  0  0
    4.0966  -10.0642  -10.9168 C   0  0  0  0  0  0  0  0  0  0  0  0
   -9.7689   -0.0592   -6.5474 C   0  0  0  0  0  0  0  0  0  0  0  0
   10.0981   -8.2331   -5.0367 C   0  0  0  0  0  0  0  0  0  0  0  0
   -1.6428   -9.0714   -8.7807 C   0  0  0  0  0  0  0  0  0  0  0  0
   -1.9718  -10.1339    3.6532 H   0  0  0  0  0  0  0  0  0  0  0  0
    1.4103  -12.5923   -0.8397 H   0  0  0  0  0  0  0  0  0  0  0  0
   -6.4018   -7.1349    0.9679 H   0  0  0  0  0  0  0  0  0  0  0  0
    4.5599   -9.5200   -4.4013 H   0  0  0  0  0  0  0  0  0  0  0  0
   -5.8074   -1.8623   -2.3576 H   0  0  0  0  0  0  0  0  0  0  0  0
    4.1175   -3.8448   -2.7634 H   0  0  0  0  0  0  0  0  0  0  0  0
   -1.0289   -2.0427   -6.1676 H   0  0  0  0  0  0  0  0  0  0  0  0
   -3.0682   -8.2576    4.6950 H   0  0  0  0  0  0  0  0  0  0  0  0
    1.8157  -11.7763    1.2949 H   0  0  0  0  0  0  0  0  0  0  0  0
   -7.4977   -5.1834   -0.0038 H   0  0  0  0  0  0  0  0  0  0  0  0
    4.7406  -11.7904   -4.0051 H   0  0  0  0  0  0  0  0  0  0  0  0
   -4.2496    0.0345   -2.5749 H   0  0  0  0  0  0  0  0  0  0  0  0
    4.7695   -5.4242   -1.0241 H   0  0  0  0  0  0  0  0  0  0  0  0
    1.3561   -2.3132   -6.5788 H   0  0  0  0  0  0  0  0  0  0  0  0
   -0.4325  -11.0233    2.2014 H   0  0  0  0  0  0  0  0  0  0  0  0
   -5.0238   -7.4065    3.0653 H   0  0  0  0  0  0  0  0  0  0  0  0
   -3.3153  -10.3156    1.4447 H   0  0  0  0  0  0  0  0  0  0  0  0
   -1.0632  -11.7673   -1.3827 H   0  0  0  0  0  0  0  0  0  0  0  0
    0.5794  -12.1671   -3.2646 H   0  0  0  0  0  0  0  0  0  0  0  0
   -6.0674   -4.3190   -2.1192 H   0  0  0  0  0  0  0  0  0  0  0  0
   -4.3979   -7.3664   -0.6736 H   0  0  0  0  0  0  0  0  0  0  0  0
    2.1803   -8.8825   -5.0493 H   0  0  0  0  0  0  0  0  0  0  0  0
    5.0677   -7.9794   -2.3403 H   0  0  0  0  0  0  0  0  0  0  0  0
   -2.3963   -0.6113   -4.5506 H   0  0  0  0  0  0  0  0  0  0  0  0
    2.2010   -4.7266   -5.2609 H   0  0  0  0  0  0  0  0  0  0  0  0
   -4.9910   -3.3423   -4.2741 H   0  0  0  0  0  0  0  0  0  0  0  0
    4.3508   -5.3126   -4.8528 H   0  0  0  0  0  0  0  0  0  0  0  0
   -1.5078   -4.2677   -4.9650 H   0  0  0  0  0  0  0  0  0  0  0  0
    1.0092   -8.9413    0.4677 H   0  0  0  0  0  0  0  0  0  0  0  0
   -2.1826   -6.5212    2.3310 H   0  0  0  0  0  0  0  0  0  0  0  0
    2.8803  -12.9707   -2.4297 H   0  0  0  0  0  0  0  0  0  0  0  0
   -4.9469   -3.6159    0.6576 H   0  0  0  0  0  0  0  0  0  0  0  0
    2.2499   -7.0491   -1.6101 H   0  0  0  0  0  0  0  0  0  0  0  0
   -2.0173   -1.9160   -1.8047 H   0  0  0  0  0  0  0  0  0  0  0  0
    1.8534   -2.1966   -3.5596 H   0  0  0  0  0  0  0  0  0  0  0  0
   -4.3092  -11.1656    3.5077 H   0  0  0  0  0  0  0  0  0  0  0  0
   -5.0095   -9.5811    3.8602 H   0  0  0  0  0  0  0  0  0  0  0  0
   -0.2163  -13.2358    1.1230 H   0  0  0  0  0  0  0  0  0  0  0  0
   -0.6569  -13.8993   -0.4610 H   0  0  0  0  0  0  0  0  0  0  0  0
   -6.8786   -6.5502   -2.2175 H   0  0  0  0  0  0  0  0  0  0  0  0
   -6.7942   -8.0286   -1.2413 H   0  0  0  0  0  0  0  0  0  0  0  0
    1.8635  -11.2021   -6.4862 H   0  0  0  0  0  0  0  0  0  0  0  0
    3.5742  -11.3265   -6.0585 H   0  0  0  0  0  0  0  0  0  0  0  0
   -4.9369   -1.6482   -6.0560 H   0  0  0  0  0  0  0  0  0  0  0  0
   -4.8482   -0.3560   -4.8441 H   0  0  0  0  0  0  0  0  0  0  0  0
    6.3192   -5.8765   -2.6207 H   0  0  0  0  0  0  0  0  0  0  0  0
    6.4298   -4.6760   -3.9154 H   0  0  0  0  0  0  0  0  0  0  0  0
    0.6404   -4.6453   -7.0741 H   0  0  0  0  0  0  0  0  0  0  0  0
   -1.0454   -4.2065   -7.4114 H   0  0  0  0  0  0  0  0  0  0  0  0
   -0.5311   -7.4329    3.7644 H   0  0  0  0  0  0  0  0  0  0  0  0
    2.9952   -9.9579   -0.5078 H   0  0  0  0  0  0  0  0  0  0  0  0
   -6.2273   -4.5827    2.4522 H   0  0  0  0  0  0  0  0  0  0  0  0
    4.8535  -12.1846   -1.8362 H   0  0  0  0  0  0  0  0  0  0  0  0
   -3.7381   -1.4967   -0.2548 H   0  0  0  0  0  0  0  0  0  0  0  0
    2.0192   -4.8489   -0.8746 H   0  0  0  0  0  0  0  0  0  0  0  0
    0.9223   -0.3536   -4.5930 H   0  0  0  0  0  0  0  0  0  0  0  0
    2.5574   -9.1231    2.0965 H   0  0  0  0  0  0  0  0  0  0  0  0
   -3.4647   -5.0006    3.3486 H   0  0  0  0  0  0  0  0  0  0  0  0
    1.8674  -13.6467   -4.2937 H   0  0  0  0  0  0  0  0  0  0  0  0
   -7.3769   -2.9330   -0.6148 H   0  0  0  0  0  0  0  0  0  0  0  0
    3.0955   -7.1360    0.4524 H   0  0  0  0  0  0  0  0  0  0  0  0
   -0.7106   -0.1890   -2.2690 H   0  0  0  0  0  0  0  0  0  0  0  0
    3.9235   -2.6156   -4.2098 H   0  0  0  0  0  0  0  0  0  0  0  0
   -6.5714  -12.1432    3.1541 H   0  0  0  0  0  0  0  0  0  0  0  0
   -7.3625  -10.5796    3.4806 H   0  0  0  0  0  0  0  0  0  0  0  0
   -2.6515  -15.2059    0.3055 H   0  0  0  0  0  0  0  0  0  0  0  0
   -1.8262  -14.9219    1.8521 H   0  0  0  0  0  0  0  0  0  0  0  0
   -6.9318   -9.3823   -3.2279 H   0  0  0  0  0  0  0  0  0  0  0  0
   -6.7449   -8.0968   -4.4467 H   0  0  0  0  0  0  0  0  0  0  0  0
    4.6874  -10.4434   -8.2377 H   0  0  0  0  0  0  0  0  0  0  0  0
    3.1812  -11.3140   -8.5987 H   0  0  0  0  0  0  0  0  0  0  0  0
   -7.1567    0.4564   -5.5653 H   0  0  0  0  0  0  0  0  0  0  0  0
   -7.1278   -0.8292   -6.7979 H   0  0  0  0  0  0  0  0  0  0  0  0
    8.5855   -5.8992   -4.6362 H   0  0  0  0  0  0  0  0  0  0  0  0
    8.3113   -7.0365   -3.2939 H   0  0  0  0  0  0  0  0  0  0  0  0
   -1.2963   -6.3230   -8.5725 H   0  0  0  0  0  0  0  0  0  0  0  0
    0.2480   -7.0581   -8.0786 H   0  0  0  0  0  0  0  0  0  0  0  0
   -7.3465  -11.9543    0.7417 H   0  0  0  0  0  0  0  0  0  0  0  0
   -4.7188  -14.1588    1.2325 H   0  0  0  0  0  0  0  0  0  0  0  0
   -4.6414  -10.2387   -3.8054 H   0  0  0  0  0  0  0  0  0  0  0  0
    3.6379   -8.3843   -9.3810 H   0  0  0  0  0  0  0  0  0  0  0  0
   -9.1578   -0.5241   -4.5237 H   0  0  0  0  0  0  0  0  0  0  0  0
    8.3771   -7.7661   -6.2640 H   0  0  0  0  0  0  0  0  0  0  0  0
   -2.5315   -7.9643   -7.1603 H   0  0  0  0  0  0  0  0  0  0  0  0
   -8.6630  -13.3412    2.3542 H   0  0  0  0  0  0  0  0  0  0  0  0
   -9.6955  -12.5897    1.1286 H   0  0  0  0  0  0  0  0  0  0  0  0
   -9.6437  -11.9187    2.7711 H   0  0  0  0  0  0  0  0  0  0  0  0
   -3.5818  -16.3449    3.0791 H   0  0  0  0  0  0  0  0  0  0  0  0
   -5.2959  -15.9162    2.9215 H   0  0  0  0  0  0  0  0  0  0  0  0
   -4.4357  -16.6353    1.5477 H   0  0  0  0  0  0  0  0  0  0  0  0
   -6.6141  -11.2876   -4.9271 H   0  0  0  0  0  0  0  0  0  0  0  0
   -5.1890  -11.2781   -5.9794 H   0  0  0  0  0  0  0  0  0  0  0  0
   -6.4932  -10.1051   -6.2501 H   0  0  0  0  0  0  0  0  0  0  0  0
    3.7742  -11.0944  -11.0908 H   0  0  0  0  0  0  0  0  0  0  0  0
    3.8648   -9.4687  -11.8017 H   0  0  0  0  0  0  0  0  0  0  0  0
    5.1775  -10.0505  -10.7655 H   0  0  0  0  0  0  0  0  0  0  0  0
   -9.5857    1.0129   -6.4555 H   0  0  0  0  0  0  0  0  0  0  0  0
  -10.8266   -0.2483   -6.3542 H   0  0  0  0  0  0  0  0  0  0  0  0
   -9.5416   -0.3707   -7.5692 H   0  0  0  0  0  0  0  0  0  0  0  0
   10.3249   -8.4852   -3.9982 H   0  0  0  0  0  0  0  0  0  0  0  0
   10.4259   -9.0560   -5.6747 H   0  0  0  0  0  0  0  0  0  0  0  0
   10.6578   -7.3370   -5.3123 H   0  0  0  0  0  0  0  0  0  0  0  0
   -2.1664   -8.5286   -9.5701 H   0  0  0  0  0  0  0  0  0  0  0  0
   -2.2057   -9.9802   -8.5576 H   0  0  0  0  0  0  0  0  0  0  0  0
   -0.6548   -9.3557   -9.1437 H   0  0  0  0  0  0  0  0  0  0  0  0
   -8.9488  -10.4772    0.2947 H   0  0  0  0  0  0  0  0  0  0  0  0
   -4.7623  -13.7056    3.4392 H   0  0  0  0  0  0  0  0  0  0  0  0
   -3.6784   -9.4918   -5.6634 H   0  0  0  0  0  0  0  0  0  0  0  0
    1.8487   -8.9121  -10.7210 H   0  0  0  0  0  0  0  0  0  0  0  0
  -10.1386   -2.3154   -5.4425 H   0  0  0  0  0  0  0  0  0  0  0  0
    8.1925   -9.8594   -5.5050 H   0  0  0  0  0  0  0  0  0  0  0  0
   -1.4150   -9.7125   -6.3259 H   0  0  0  0  0  0  0  0  0  0  0  0
  1 43  1  0  0  0  0
  1 57  1  0  0  0  0
  2 44  1  0  0  0  0
  2 61  1  0  0  0  0
  3 45  1  0  0  0  0
  3 58  1  0  0  0  0
  4 46  1  0  0  0  0
  4 65  1  0  0  0  0
  5 47  1  0  0  0  0
  5 62  1  0  0  0  0
  6 48  1  0  0  0  0
  6 67  1  0  0  0  0
  7 49  1  0  0  0  0
  7 66  1  0  0  0  0
  8 57  1  0  0  0  0
  8 60  1  0  0  0  0
  9 58  1  0  0  0  0
  9 59  1  0  0  0  0
 10 61  1  0  0  0  0
 10 64  1  0  0  0  0
 11 62  1  0  0  0  0
 11 63  1  0  0  0  0
 12 65  1  0  0  0  0
 12 69  1  0  0  0  0
 13 66  1  0  0  0  0
 13 68  1  0  0  0  0
 14 67  1  0  0  0  0
 14 70  1  0  0  0  0
 50 15  1  0  0  0  0
 15155  1  0  0  0  0
 51 16  1  0  0  0  0
 16156  1  0  0  0  0
 52 17  1  0  0  0  0
 17157  1  0  0  0  0
 53 18  1  0  0  0  0
 18158  1  0  0  0  0
 54 19  1  0  0  0  0
 19159  1  0  0  0  0
 55 20  1  0  0  0  0
 20160  1  0  0  0  0
 56 21  1  0  0  0  0
 21161  1  0  0  0  0
 71 22  1  0  0  0  0
 22162  1  0  0  0  0
 72 23  1  0  0  0  0
 23163  1  0  0  0  0
 73 24  1  0  0  0  0
 24164  1  0  0  0  0
 74 25  1  0  0  0  0
 25165  1  0  0  0  0
 75 26  1  0  0  0  0
 26166  1  0  0  0  0
 76 27  1  0  0  0  0
 27167  1  0  0  0  0
 77 28  1  0  0  0  0
 28168  1  0  0  0  0
 29 78  1  0  0  0  0
 29 85  1  0  0  0  0
 30 79  1  0  0  0  0
 30 86  1  0  0  0  0
 31 80  1  0  0  0  0
 31 87  1  0  0  0  0
 32 81  1  0  0  0  0
 32 88  1  0  0  0  0
 33 82  1  0  0  0  0
 33 89  1  0  0  0  0
 34 83  1  0  0  0  0
 34 90  1  0  0  0  0
 35 84  1  0  0  0  0
 35 91  1  0  0  0  0
 36 92  1  0  0  0  0
 36211  1  0  0  0  0
 37 93  1  0  0  0  0
 37212  1  0  0  0  0
 38 94  1  0  0  0  0
 38213  1  0  0  0  0
 39 95  1  0  0  0  0
 39214  1  0  0  0  0
 40 96  1  0  0  0  0
 40215  1  0  0  0  0
 41 97  1  0  0  0  0
 41216  1  0  0  0  0
 42 98  1  0  0  0  0
 42217  1  0  0  0  0
 43 50  1  0  0  0  0
 43 59  1  0  0  0  0
 43106  1  0  0  0  0
 44 51  1  0  0  0  0
 44 60  1  0  0  0  0
 44107  1  0  0  0  0
 45 52  1  0  0  0  0
 45 63  1  0  0  0  0
 45108  1  0  0  0  0
 46 53  1  0  0  0  0
 46 64  1  0  0  0  0
 46109  1  0  0  0  0
 47 54  1  0  0  0  0
 47 68  1  0  0  0  0
 47110  1  0  0  0  0
 48 55  1  0  0  0  0
 48 69  1  0  0  0  0
 48111  1  0  0  0  0
 49 56  1  0  0  0  0
 49 70  1  0  0  0  0
 49112  1  0  0  0  0
 50 72  1  0  0  0  0
 50113  1  0  0  0  0
 51 71  1  0  0  0  0
 51114  1  0  0  0  0
 52 74  1  0  0  0  0
 52115  1  0  0  0  0
 53 73  1  0  0  0  0
 53116  1  0  0  0  0
 54 76  1  0  0  0  0
 54117  1  0  0  0  0
 55 75  1  0  0  0  0
 55118  1  0  0  0  0
 56 77  1  0  0  0  0
 56119  1  0  0  0  0
 57 71  1  0  0  0  0
 57120  1  0  0  0  0
 58 72  1  0  0  0  0
 58121  1  0  0  0  0
 59 78  1  0  0  0  0
 59122  1  0  0  0  0
 60 79  1  0  0  0  0
 60123  1  0  0  0  0
 61 73  1  0  0  0  0
 61124  1  0  0  0  0
 62 74  1  0  0  0  0
 62125  1  0  0  0  0
 63 80  1  0  0  0  0
 63126  1  0  0  0  0
 64 81  1  0  0  0  0
 64127  1  0  0  0  0
 65 75  1  0  0  0  0
 65128  1  0  0  0  0
 66 76  1  0  0  0  0
 66129  1  0  0  0  0
 67 77  1  0  0  0  0
 67130  1  0  0  0  0
 68 82  1  0  0  0  0
 68131  1  0  0  0  0
 69 83  1  0  0  0  0
 69132  1  0  0  0  0
 70 84  1  0  0  0  0
 70133  1  0  0  0  0
 71134  1  0  0  0  0
 72135  1  0  0  0  0
 73136  1  0  0  0  0
 74137  1  0  0  0  0
 75138  1  0  0  0  0
 76139  1  0  0  0  0
 77140  1  0  0  0  0
 78141  1  0  0  0  0
 78142  1  0  0  0  0
 79143  1  0  0  0  0
 79144  1  0  0  0  0
 80145  1  0  0  0  0
 80146  1  0  0  0  0
 81147  1  0  0  0  0
 81148  1  0  0  0  0
 82149  1  0  0  0  0
 82150  1  0  0  0  0
 83151  1  0  0  0  0
 83152  1  0  0  0  0
 84153  1  0  0  0  0
 84154  1  0  0  0  0
 85 92  1  0  0  0  0
 85169  1  0  0  0  0
 85170  1  0  0  0  0
 86 93  1  0  0  0  0
 86171  1  0  0  0  0
 86172  1  0  0  0  0
 87 94  1  0  0  0  0
 87173  1  0  0  0  0
 87174  1  0  0  0  0
 88 95  1  0  0  0  0
 88175  1  0  0  0  0
 88176  1  0  0  0  0
 89 96  1  0  0  0  0
 89177  1  0  0  0  0
 89178  1  0  0  0  0
 90 97  1  0  0  0  0
 90179  1  0  0  0  0
 90180  1  0  0  0  0
 91 98  1  0  0  0  0
 91181  1  0  0  0  0
 91182  1  0  0  0  0
 92 99  1  0  0  0  0
 92183  1  0  0  0  0
 93100  1  0  0  0  0
 93184  1  0  0  0  0
 94101  1  0  0  0  0
 94185  1  0  0  0  0
 95102  1  0  0  0  0
 95186  1  0  0  0  0
 96103  1  0  0  0  0
 96187  1  0  0  0  0
 97104  1  0  0  0  0
 97188  1  0  0  0  0
 98105  1  0  0  0  0
 98189  1  0  0  0  0
 99190  1  0  0  0  0
 99191  1  0  0  0  0
 99192  1  0  0  0  0
100193  1  0  0  0  0
100194  1  0  0  0  0
100195  1  0  0  0  0
101196  1  0  0  0  0
101197  1  0  0  0  0
101198  1  0  0  0  0
102199  1  0  0  0  0
102200  1  0  0  0  0
102201  1  0  0  0  0
103202  1  0  0  0  0
103203  1  0  0  0  0
103204  1  0  0  0  0
104205  1  0  0  0  0
104206  1  0  0  0  0
104207  1  0  0  0  0
105208  1  0  0  0  0
105209  1  0  0  0  0
105210  1  0  0  0  0
M  END
>  <PUBCHEM_COMPOUND_CID>
138319308

>  <PUBCHEM_COMPOUND_CANONICALIZED>
1

>  <PUBCHEM_CACTVS_COMPLEXITY>
2010

>  <PUBCHEM_CACTVS_HBOND_ACCEPTOR>
42

>  <PUBCHEM_CACTVS_HBOND_DONOR>
21

>  <PUBCHEM_CACTVS_ROTATABLE_BOND>
28

>  <PUBCHEM_CACTVS_SUBSKEYS>
AAADcfB8PgAAAAAAAAAAAAAAAAAAAAAAAAAkSJEiQAAAAAAAAAAAGgAACAAACBSwgAMCCAAABgAAAAAAAAAAAAAAAAAAAAAAAAAREAIAAAAiQAAFAAAHAAHAYAwAAAAAAAAAAAAAAAAAAAAAAAAAAAAAAA==

>  <PUBCHEM_IUPAC_OPENEYE_NAME>
(1S,3R,5R,6S,8R,10R,11S,13R,15R,16S,18R,20R,21S,23R,25R,26S,28R,30R,31S,33R,35R,36S,37S,38S,39S,40S,41S,42S,43S,44S,45S,46S,47S,48S,49S)-5,10,15,20,25,30,35-heptakis(2-hydroxypropoxymethyl)-2,4,7,9,12,14,17,19,22,24,27,29,32,34-tetradecaoxaoctacyclo[31.2.2.23,6.28,11.213,16.218,21.223,26.228,31]nonatetracontane-36,37,38,39,40,41,42,43,44,45,46,47,48,49-tetradecol

>  <PUBCHEM_IUPAC_CAS_NAME>
(1S,3R,5R,6S,8R,10R,11S,13R,15R,16S,18R,20R,21S,23R,25R,26S,28R,30R,31S,33R,35R,36S,37S,38S,39S,40S,41S,42S,43S,44S,45S,46S,47S,48S,49S)-5,10,15,20,25,30,35-heptakis(2-hydroxypropoxymethyl)-2,4,7,9,12,14,17,19,22,24,27,29,32,34-tetradecaoxaoctacyclo[31.2.2.23,6.28,11.213,16.218,21.223,26.228,31]nonatetracontane-36,37,38,39,40,41,42,43,44,45,46,47,48,49-tetradecol

>  <PUBCHEM_IUPAC_NAME_MARKUP>
(1<I>S</I>,3<I>R</I>,5<I>R</I>,6<I>S</I>,8<I>R</I>,10<I>R</I>,11<I>S</I>,13<I>R</I>,15<I>R</I>,16<I>S</I>,18<I>R</I>,20<I>R</I>,21<I>S</I>,23<I>R</I>,25<I>R</I>,26<I>S</I>,28<I>R</I>,30<I>R</I>,31<I>S</I>,33<I>R</I>,35<I>R</I>,36<I>S</I>,37<I>S</I>,38<I>S</I>,39<I>S</I>,40<I>S</I>,41<I>S</I>,42<I>S</I>,43<I>S</I>,44<I>S</I>,45<I>S</I>,46<I>S</I>,47<I>S</I>,48<I>S</I>,49<I>S</I>)-5,10,15,20,25,30,35-heptakis(2-hydroxypropoxymethyl)-2,4,7,9,12,14,17,19,22,24,27,29,32,34-tetradecaoxaoctacyclo[31.2.2.2<SUP>3,6</SUP>.2<SUP>8,11</SUP>.2<SUP>13,16</SUP>.2<SUP>18,21</SUP>.2<SUP>23,26</SUP>.2<SUP>28,31</SUP>]nonatetracontane-36,37,38,39,40,41,42,43,44,45,46,47,48,49-tetradecol

>  <PUBCHEM_IUPAC_NAME>
(1S,3R,5R,6S,8R,10R,11S,13R,15R,16S,18R,20R,21S,23R,25R,26S,28R,30R,31S,33R,35R,36S,37S,38S,39S,40S,41S,42S,43S,44S,45S,46S,47S,48S,49S)-5,10,15,20,25,30,35-heptakis(2-hydroxypropoxymethyl)-2,4,7,9,12,14,17,19,22,24,27,29,32,34-tetradecaoxaoctacyclo[31.2.2.23,6.28,11.213,16.218,21.223,26.228,31]nonatetracontane-36,37,38,39,40,41,42,43,44,45,46,47,48,49-tetradecol

>  <PUBCHEM_IUPAC_SYSTEMATIC_NAME>
(1S,3R,5R,6S,8R,10R,11S,13R,15R,16S,18R,20R,21S,23R,25R,26S,28R,30R,31S,33R,35R,36S,37S,38S,39S,40S,41S,42S,43S,44S,45S,46S,47S,48S,49S)-5,10,15,20,25,30,35-heptakis(2-oxidanylpropoxymethyl)-2,4,7,9,12,14,17,19,22,24,27,29,32,34-tetradecaoxaoctacyclo[31.2.2.23,6.28,11.213,16.218,21.223,26.228,31]nonatetracontane-36,37,38,39,40,41,42,43,44,45,46,47,48,49-tetradecol

>  <PUBCHEM_IUPAC_TRADITIONAL_NAME>
(1S,3R,5R,6S,8R,10R,11S,13R,15R,16S,18R,20R,21S,23R,25R,26S,28R,30R,31S,33R,35R,36S,37S,38S,39S,40S,41S,42S,43S,44S,45S,46S,47S,48S,49S)-5,10,15,20,25,30,35-heptakis(2-hydroxypropoxymethyl)-2,4,7,9,12,14,17,19,22,24,27,29,32,34-tetradecaoxaoctacyclo[31.2.2.23,6.28,11.213,16.218,21.223,26.228,31]nonatetracontane-36,37,38,39,40,41,42,43,44,45,46,47,48,49-tetradecol

>  <PUBCHEM_IUPAC_INCHI>
InChI=1S/C63H112O42/c1-22(64)8-85-15-29-50-36(71)43(78)57(92-29)100-51-30(16-86-9-23(2)65)94-59(45(80)38(51)73)102-53-32(18-88-11-25(4)67)96-61(47(82)40(53)75)104-55-34(20-90-13-27(6)69)98-63(49(84)42(55)77)105-56-35(21-91-14-28(7)70)97-62(48(83)41(56)76)103-54-33(19-89-12-26(5)68)95-60(46(81)39(54)74)101-52-31(17-87-10-24(3)66)93-58(99-50)44(79)37(52)72/h22-84H,8-21H2,1-7H3/t22?,23?,24?,25?,26?,27?,28?,29-,30-,31-,32-,33-,34-,35-,36+,37+,38+,39+,40+,41+,42+,43+,44+,45+,46+,47+,48+,49+,50-,51-,52-,53-,54-,55-,56-,57-,58-,59-,60-,61-,62-,63-/m1/s1

>  <PUBCHEM_IUPAC_INCHIKEY>
ODLHGICHYURWBS-LMNZQWFYSA-N

>  <PUBCHEM_XLOGP3_AA>
-13

>  <PUBCHEM_EXACT_MASS>
1540.6628176

>  <PUBCHEM_MOLECULAR_FORMULA>
C63H112O42

>  <PUBCHEM_MOLECULAR_WEIGHT>
1541.5

>  <PUBCHEM_OPENEYE_CAN_SMILES>
CC(COCC1C2C(C(C(O1)OC3C(OC(C(C3O)O)OC4C(OC(C(C4O)O)OC5C(OC(C(C5O)O)OC6C(OC(C(C6O)O)OC7C(OC(C(C7O)O)OC8C(OC(O2)C(C8O)O)COCC(C)O)COCC(C)O)COCC(C)O)COCC(C)O)COCC(C)O)COCC(C)O)O)O)O

>  <PUBCHEM_OPENEYE_ISO_SMILES>
CC(COC[C@@H]1[C@@H]2[C@H]([C@@H]([C@H](O1)O[C@@H]3[C@H](O[C@@H]([C@H]([C@@H]3O)O)O[C@@H]4[C@H](O[C@@H]([C@H]([C@@H]4O)O)O[C@@H]5[C@H](O[C@@H]([C@H]([C@@H]5O)O)O[C@@H]6[C@H](O[C@@H]([C@H]([C@@H]6O)O)O[C@@H]7[C@H](O[C@@H]([C@H]([C@@H]7O)O)O[C@@H]8[C@H](O[C@H](O2)[C@H]([C@@H]8O)O)COCC(C)O)COCC(C)O)COCC(C)O)COCC(C)O)COCC(C)O)COCC(C)O)O)O)O

>  <PUBCHEM_CACTVS_TPSA>
619

>  <PUBCHEM_MONOISOTOPIC_WEIGHT>
1540.6628176

>  <PUBCHEM_TOTAL_CHARGE>
0

>  <PUBCHEM_HEAVY_ATOM_COUNT>
105

>  <PUBCHEM_ATOM_DEF_STEREO_COUNT>
35

>  <PUBCHEM_ATOM_UDEF_STEREO_COUNT>
7

>  <PUBCHEM_BOND_DEF_STEREO_COUNT>
0

>  <PUBCHEM_BOND_UDEF_STEREO_COUNT>
0

>  <PUBCHEM_ISOTOPIC_ATOM_COUNT>
0

>  <PUBCHEM_COMPONENT_COUNT>
1

>  <PUBCHEM_CACTVS_TAUTO_COUNT>
-1

>  <PUBCHEM_COORDINATE_TYPE>
1
5
255

>  <PUBCHEM_BONDANNOTATIONS>
50  15  6
51  16  6
52  17  6
53  18  6
54  19  5
55  20  5
56  21  5
71  22  5
72  23  5
73  24  5
74  25  5
75  26  6
76  27  6
77  28  6
92  36  3
93  37  3
94  38  3
95  39  3
96  40  3
97  41  3
98  42  3
43  106  5
44  107  5
45  108  5
46  109  5
47  110  6
48  111  6
49  112  6
57  120  5
58  121  5
59  78  5
60  79  5
61  124  5
62  125  5
63  80  5
64  81  5
65  128  6
66  129  6
67  130  6
68  82  6
69  83  6
70  84  6

$$$$
